Mrv0541 12012115452D          

 23 24  0  0  0  0            999 V2000
   -2.0008    0.4951    0.0000 O   0  0  0  0  0  0  0  0  0  0  0  0
   -1.4294    0.8252    0.0000 S   0  0  0  0  0  0  0  0  0  0  0  0
   -2.0011    1.1550    0.0000 O   0  0  0  0  0  0  0  0  0  0  0  0
    0.7145   -0.4125    0.0000 C   0  0  0  0  0  0  0  0  0  0  0  0
    0.7145    0.4125    0.0000 C   0  0  0  0  0  0  0  0  0  0  0  0
    0.0000    0.8250    0.0000 C   0  0  0  0  0  0  0  0  0  0  0  0
   -0.7145    0.4125    0.0000 C   0  0  0  0  0  0  0  0  0  0  0  0
   -0.7145   -0.4125    0.0000 C   0  0  0  0  0  0  0  0  0  0  0  0
    0.0000   -0.8250    0.0000 C   0  0  0  0  0  0  0  0  0  0  0  0
    1.4293   -0.8252    0.0000 C   0  0  0  0  0  0  0  0  0  0  0  0
    2.1732   -0.4848    0.0000 N   0  0  0  0  0  0  0  0  0  0  0  0
    2.7243   -1.0988    0.0000 N   0  0  0  0  0  0  0  0  0  0  0  0
    2.3106   -1.8126    0.0000 N   0  0  0  0  0  0  0  0  0  0  0  0
    1.5039   -1.6399    0.0000 N   0  0  0  0  0  0  0  0  0  0  0  0
   -1.4299    1.6507    0.0000 N   0  0  0  0  0  0  0  0  0  0  0  0
   -2.1448    2.0634    0.0000 C   0  0  0  0  0  0  0  0  0  0  0  0
   -2.1453    2.8889    0.0000 B   0  0  0  0  0  0  0  0  0  0  0  0
   -2.7169    3.2189    0.0000 O   0  0  0  0  0  0  0  0  0  0  0  0
   -1.5738    3.2191    0.0000 O   0  0  0  0  0  0  0  0  0  0  0  0
    0.0000    1.6505    0.0000 C   0  0  0  0  0  0  0  0  0  0  0  0
    0.5714    1.9809    0.0000 F   0  0  0  0  0  0  0  0  0  0  0  0
   -0.5717    1.9803    0.0000 F   0  0  0  0  0  0  0  0  0  0  0  0
   -0.0003    2.3105    0.0000 F   0  0  0  0  0  0  0  0  0  0  0  0
  2  1  2  0  0  0  0
  3  2  2  0  0  0  0
  4  5  4  0  0  0  0
  5  6  4  0  0  0  0
  6  7  4  0  0  0  0
  7  8  4  0  0  0  0
  8  9  4  0  0  0  0
  9  4  4  0  0  0  0
  4 10  1  0  0  0  0
 10 11  4  0  0  0  0
 11 12  4  0  0  0  0
 12 13  4  0  0  0  0
 13 14  4  0  0  0  0
 14 10  4  0  0  0  0
  7  2  1  0  0  0  0
  2 15  1  0  0  0  0
 15 16  1  0  0  0  0
 16 17  1  0  0  0  0
 17 18  1  0  0  0  0
 17 19  1  0  0  0  0
 20 21  1  0  0  0  0
 20 22  1  0  0  0  0
 20 23  1  0  0  0  0
  6 20  1  0  0  0  0
M  STY  1   1 DAT
M  SAL   1  1  11
M  SDT   1 MRV_IMPLICIT_H                                        
M  SDD   1     0.0000    0.0000    DR    ALL  0       0  
M  SED   1 IMPL_H1
M  END
> <From>
www.bindingDB.org

> <BindingDB Reactant_set_id>
50950105

> <Ligand InChI>
InChI=1S/C9H9BF3N5O4S/c11-9(12,13)6-3-5(8-15-17-18-16-8)1-2-7(6)23(21,22)14-4-10(19)20/h1-3,14,19-20H,4H2,(H,15,16,17,18)

> <Ligand InChI Key>
KJEUORQIESDSSV-UHFFFAOYSA-N

> <BindingDB MonomerID>
50274047

> <BindingDB Ligand Name>
CHEMBL3613796

> <Target Name>
Beta-lactamase

> <Target Source Organism According to Curator or DataSource>
Escherichia coli

> <Ki (nM)>
 0.050

> <IC50 (nM)>


> <Kd (nM)>


> <EC50 (nM)>


> <kon (M-1-s-1)>


> <koff (s-1)>


> <pH>


> <Temp C>


> <Curation/DataSource>
ChEMBL

> <Article DOI>
10.1016/j.bmc.2018.04.055

> <BindingDB Entry DOI>
10.7270/Q25T3P0V

> <PMID>
29784271

> <PubChem AID>


> <Patent Number>


> <Authors>
Zhou, J; Stapleton, P; Haider, S; Healy, J

> <Institution>
UCL School of Pharmacy

> <Link to Ligand in BindingDB>
http://www.bindingdb.org/bind/chemsearch/marvin/MolStructure.jsp?monomerid=50274047

> <Link to Ligand-Target Pair in BindingDB>
http://www.bindingdb.org/jsp/dbsearch/PrimarySearch_ki.jsp?energyterm=kJ/mole&tag=pol&polymerid=4401&target=Beta-lactamase&column=ki&startPg=0&Increment=50&submit=Search

> <Link to Ligand-Target Pair in BindingDB>
http://www.bindingdb.org/jsp/dbsearch/PrimarySearch_ki.jsp?energyterm=kJ/mole&tag=r21&monomerid=50274047&enzyme=Beta-lactamase&column=ki&startPg=0&Increment=50&submit=Search

> <Ligand HET ID in PDB>
0NE

> <PDB ID(s) for Ligand-Target Complex>
4E3N

> <PubChem CID of Ligand>
71549453

> <PubChem SID of Ligand>
405256754

> <ChEBI ID of Ligand>


> <ChEMBL ID of Ligand>


> <DrugBank ID of Ligand>


> <IUPHAR_GRAC ID of Ligand>


> <KEGG ID of Ligand>


> <ZINC ID of Ligand>


> <Number of Protein Chains in Target (bigger than 1 implies a multichain complex)>
1

> <BindingDB Target Chain Sequence>
MFKTTLCALLITASCSTFAAPQQINDIVHRTITPLIEQQKIPGMAVAVIYQGKPYYFTWGYADIAKKQPVTQQTLFELGSVSKTFTGVLGGDAIARGEIKLSDPTTKYWPELTAKQWNGITLLHLATYTAGGLPLQVPDEVKSSSDLLRFYQNWQPAWAPGTQRLYANSSIGLFGALAVKPSGLSFEQAMQTRVFQPLKLNHTWINVPPAEEKNYAWGYREGKAVHVSPGALDAEAYGVKSTIEDMARWVQSNLKPLDINEKTLQQGIQLAQSRYWQTGDMYQGLGWEMLDWPVNPDSIINGSDNKIALAARPVKAITPPTPAVRASWVHKTGATGGFGSYVAFIPEKELGIVMLANKNYPNPARVDAAWQILNALQ

> <PDB ID(s) of Target Chain>
1C3B,1FCO,1FSW,1FSY,1GA9,1IEL,1IEM,1KDS,1KDW,1KE0,1KE3,1KE4,1KVM,1L2S,1LL5,1LL9,1LLB,1MXO,1MY8,1XGI,1XGJ,2BLS,2HDQ,2HDR,2HDS,2HDU,2I72,2P9V,2PU2,2PU4,2R9W,2R9X,2RCX,3BLS,3BM6,3GQZ,3GR2,3GRJ,3GSG,3GTC,3GV9,3GVB,3O86,3O87,3O88,4E3I,4E3J,4E3K,4E3L,4E3M,4E3N,4E3O,4JXG,4JXS,4JXV,4JXW,4KG2,4KZ3,4KZ4,4KZ5,4KZ6,4KZ7,4KZ8,4KZ9,4KZA,4KZB,4LV0,4LV1,4LV2,4LV3,4OKP,4OLD,4OLG,6DPT,6DPX,6DPY,6DPZ,6T35,6T3D,6T5Y,6T7L,6TBW,6TPM,6WGQ,6YEN,6YEO,6YPD

> <UniProt (SwissProt) Recommended Name of Target Chain>
Beta-lactamase

> <UniProt (SwissProt) Entry Name of Target Chain>
AMPC_ECOLI

> <UniProt (SwissProt) Primary ID of Target Chain>
P00811

> <UniProt (SwissProt) Secondary ID(s) of Target Chain>
Q2M6F2

> <UniProt (SwissProt) Alternative ID(s) of Target Chain>


> <UniProt (TrEMBL) Submitted Name of Target Chain>


> <UniProt (TrEMBL) Entry Name of Target Chain>


> <UniProt (TrEMBL) Primary ID of Target Chain>


> <UniProt (TrEMBL) Secondary ID(s) of Target Chain>


> <UniProt (TrEMBL) Alternative ID(s) of Target Chain>


$$$$

     RDKit          2D

 25 26  0  0  0  0  0  0  0  0999 V2000
   24.5034   -6.3023    0.0000 F   0  0  0  0  0  0  0  0  0  0  0  0
   23.7151   -6.0918    0.0000 C   0  0  0  0  0  0  0  0  0  0  0  0
   23.9269   -6.8797    0.0000 F   0  0  0  0  0  0  0  0  0  0  0  0
   24.6891   -2.9262    0.0000 O   0  0  0  0  0  0  0  0  0  0  0  0
   25.1018   -3.6361    0.0000 S   0  0  0  0  0  0  0  0  0  0  0  0
   25.5102   -2.9237    0.0000 O   0  0  0  0  0  0  0  0  0  0  0  0
   24.3981   -4.0495    0.0000 C   0  0  0  0  0  0  0  0  0  0  0  0
   25.8136   -4.0473    0.0000 C   0  0  0  0  0  0  0  0  0  0  0  0
   26.5206   -3.6376    0.0000 N   0  0  0  0  0  0  0  0  0  0  0  0
   25.8148   -4.8645    0.0000 O   0  0  0  0  0  0  0  0  0  0  0  0
   27.2290   -4.0451    0.0000 C   0  0  0  0  0  0  0  0  0  0  0  0
   27.9360   -3.6354    0.0000 B   0  0  0  0  0  0  0  0  0  0  0  0
   28.6444   -4.0429    0.0000 O   0  0  0  0  0  0  0  0  0  0  0  0
   27.9348   -2.8182    0.0000 O   0  0  0  0  0  0  0  0  0  0  0  0
   23.6904   -3.6425    0.0000 C   0  0  0  0  0  0  0  0  0  0  0  0
   22.9872   -4.0553    0.0000 C   0  0  0  0  0  0  0  0  0  0  0  0
   22.9930   -4.8722    0.0000 C   0  0  0  0  0  0  0  0  0  0  0  0
   23.7078   -5.2747    0.0000 C   0  0  0  0  0  0  0  0  0  0  0  0
   24.4081   -4.8596    0.0000 C   0  0  0  0  0  0  0  0  0  0  0  0
   22.2778   -3.6537    0.0000 C   0  0  0  0  0  0  0  0  0  0  0  0
   22.1865   -2.8417    0.0000 N   0  0  0  0  0  0  0  0  0  0  0  0
   21.3860   -2.6775    0.0000 N   0  0  0  0  0  0  0  0  0  0  0  0
   20.9824   -3.3881    0.0000 N   0  0  0  0  0  0  0  0  0  0  0  0
   21.5337   -3.9914    0.0000 N   0  0  0  0  0  0  0  0  0  0  0  0
   23.0138   -6.5083    0.0000 F   0  0  0  0  0  0  0  0  0  0  0  0
  2  1  1  0
  3  2  1  0
  5  4  2  0
  6  5  2  0
  7  5  1  0
  5  8  1  0
  8  9  1  0
  8 10  2  0
  9 11  1  0
 11 12  1  0
 12 13  1  0
 12 14  1  0
  7 15  2  0
 15 16  1  0
 16 17  2  0
 17 18  1  0
 18 19  2  0
 19  7  1  0
 20 21  2  0
 21 22  1  0
 22 23  2  0
 23 24  1  0
 24 20  1  0
 16 20  1  0
 18  2  1  0
  2 25  1  0
M  END
> <From>
www.bindingDB.org

> <BindingDB Reactant_set_id>
51105938

> <Ligand InChI>
InChI=1S/C10H9BF3N5O5S/c12-10(13,14)6-1-5(8-16-18-19-17-8)2-7(3-6)25(23,24)9(20)15-4-11(21)22/h1-3,21-22H,4H2,(H,15,20)(H,16,17,18,19)

> <Ligand InChI Key>
BZGWNDWGOZWNTD-UHFFFAOYSA-N

> <BindingDB MonomerID>
50450973

> <BindingDB Ligand Name>
CHEMBL4209255

> <Target Name>
Beta-lactamase 1

> <Target Source Organism According to Curator or DataSource>


> <Ki (nM)>
 0.050000

> <IC50 (nM)>


> <Kd (nM)>


> <EC50 (nM)>


> <kon (M-1-s-1)>


> <koff (s-1)>


> <pH>


> <Temp C>


> <Curation/DataSource>
ChEMBL

> <Article DOI>
10.1016/j.bmcl.2017.08.027

> <BindingDB Entry DOI>
10.7270/Q2N0193Z

> <PMID>
28827113

> <PubChem AID>


> <Patent Number>


> <Authors>
Gonz치lez-Bello, C

> <Institution>
Universidade de Santiago de Compostela

> <Link to Ligand in BindingDB>
http://www.bindingdb.org/bind/chemsearch/marvin/MolStructure.jsp?monomerid=50450973

> <Link to Ligand-Target Pair in BindingDB>
http://www.bindingdb.org/jsp/dbsearch/PrimarySearch_ki.jsp?energyterm=kJ/mole&tag=pol&polymerid=50007713&target=Beta-lactamase+1&column=ki&startPg=0&Increment=50&submit=Search

> <Link to Ligand-Target Pair in BindingDB>
http://www.bindingdb.org/jsp/dbsearch/PrimarySearch_ki.jsp?energyterm=kJ/mole&tag=r21&monomerid=50450973&enzyme=Beta-lactamase+1&column=ki&startPg=0&Increment=50&submit=Search

> <Ligand HET ID in PDB>


> <PDB ID(s) for Ligand-Target Complex>


> <PubChem CID of Ligand>
145965415

> <PubChem SID of Ligand>
433920308

> <ChEBI ID of Ligand>


> <ChEMBL ID of Ligand>


> <DrugBank ID of Ligand>


> <IUPHAR_GRAC ID of Ligand>


> <KEGG ID of Ligand>


> <ZINC ID of Ligand>


> <Number of Protein Chains in Target (bigger than 1 implies a multichain complex)>
1

> <BindingDB Target Chain Sequence>
MKNKKMLKIGMCVGILGLSITSLVTFTGGALQVEAKEKTGQVKHKNQATHKEFSQLEKKF
DARLGVYAIDTGTNQTIAYRPNERFAFASTYKALAAGVLLQQNSTKKLDEVITYTKEDLV
DYSPVTEKHVDTGMTLGEIAEAAVRYSDNTAGNILFHKIGGPKGYEKALRKMGDRVTMSD
RFETELNEAIPGDIRDTSTAKAIARNLKDFTVGNALPHQKRNILTEWMKGNATGDKLIRA
GVPTDWVDADKSGAGSYGTRNDIAIVWPPNRSPIIIAILSSKDEKEATYDNQLIKEAAEV
VIDAIK

> <PDB ID(s) of Target Chain>


> <UniProt (SwissProt) Recommended Name of Target Chain>
Beta-lactamase 1

> <UniProt (SwissProt) Entry Name of Target Chain>
BLA1_BACCE

> <UniProt (SwissProt) Primary ID of Target Chain>
P10424

> <UniProt (SwissProt) Secondary ID(s) of Target Chain>


> <UniProt (SwissProt) Alternative ID(s) of Target Chain>


> <UniProt (TrEMBL) Submitted Name of Target Chain>


> <UniProt (TrEMBL) Entry Name of Target Chain>


> <UniProt (TrEMBL) Primary ID of Target Chain>


> <UniProt (TrEMBL) Secondary ID(s) of Target Chain>


> <UniProt (TrEMBL) Alternative ID(s) of Target Chain>


$$$$

     RDKit          2D

 22 23  0  0  0  0  0  0  0  0999 V2000
   14.2967   -2.6538    0.0000 O   0  0  0  0  0  0  0  0  0  0  0  0
   14.7094   -3.3637    0.0000 S   0  0  0  0  0  0  0  0  0  0  0  0
   15.1179   -2.6513    0.0000 O   0  0  0  0  0  0  0  0  0  0  0  0
   14.0058   -3.7771    0.0000 C   0  0  0  0  0  0  0  0  0  0  0  0
   15.4212   -3.7749    0.0000 C   0  0  0  0  0  0  0  0  0  0  0  0
   16.1283   -3.3652    0.0000 N   0  0  0  0  0  0  0  0  0  0  0  0
   15.4225   -4.5921    0.0000 O   0  0  0  0  0  0  0  0  0  0  0  0
   16.8366   -3.7727    0.0000 C   0  0  0  0  0  0  0  0  0  0  0  0
   17.5437   -3.3630    0.0000 B   0  0  0  0  0  0  0  0  0  0  0  0
   18.2520   -3.7705    0.0000 O   0  0  0  0  0  0  0  0  0  0  0  0
   17.5424   -2.5458    0.0000 O   0  0  0  0  0  0  0  0  0  0  0  0
   13.2980   -3.3701    0.0000 C   0  0  0  0  0  0  0  0  0  0  0  0
   12.5948   -3.7829    0.0000 C   0  0  0  0  0  0  0  0  0  0  0  0
   12.6006   -4.5998    0.0000 C   0  0  0  0  0  0  0  0  0  0  0  0
   13.3155   -5.0023    0.0000 C   0  0  0  0  0  0  0  0  0  0  0  0
   14.0157   -4.5872    0.0000 C   0  0  0  0  0  0  0  0  0  0  0  0
   11.8854   -3.3813    0.0000 C   0  0  0  0  0  0  0  0  0  0  0  0
   11.7942   -2.5693    0.0000 N   0  0  0  0  0  0  0  0  0  0  0  0
   10.9936   -2.4051    0.0000 N   0  0  0  0  0  0  0  0  0  0  0  0
   10.5901   -3.1157    0.0000 N   0  0  0  0  0  0  0  0  0  0  0  0
   11.1413   -3.7190    0.0000 N   0  0  0  0  0  0  0  0  0  0  0  0
   13.3246   -5.8194    0.0000 Cl  0  0  0  0  0  0  0  0  0  0  0  0
  2  1  2  0
  3  2  2  0
  4  2  1  0
  2  5  1  0
  5  6  1  0
  5  7  2  0
  6  8  1  0
  8  9  1  0
  9 10  1  0
  9 11  1  0
  4 12  2  0
 12 13  1  0
 13 14  2  0
 14 15  1  0
 15 16  2  0
 16  4  1  0
 17 18  2  0
 18 19  1  0
 19 20  2  0
 20 21  1  0
 21 17  1  0
 13 17  1  0
 15 22  1  0
M  END
> <From>
www.bindingDB.org

> <BindingDB Reactant_set_id>
51105939

> <Ligand InChI>
InChI=1S/C9H9BClN5O5S/c11-6-1-5(8-13-15-16-14-8)2-7(3-6)22(20,21)9(17)12-4-10(18)19/h1-3,18-19H,4H2,(H,12,17)(H,13,14,15,16)

> <Ligand InChI Key>
DBGVEPOPIFWWLP-UHFFFAOYSA-N

> <BindingDB MonomerID>
50450974

> <BindingDB Ligand Name>
CHEMBL4206040

> <Target Name>
Beta-lactamase 1

> <Target Source Organism According to Curator or DataSource>


> <Ki (nM)>
 0.200000

> <IC50 (nM)>


> <Kd (nM)>


> <EC50 (nM)>


> <kon (M-1-s-1)>


> <koff (s-1)>


> <pH>


> <Temp C>


> <Curation/DataSource>
ChEMBL

> <Article DOI>
10.1016/j.bmcl.2017.08.027

> <BindingDB Entry DOI>
10.7270/Q2N0193Z

> <PMID>
28827113

> <PubChem AID>


> <Patent Number>


> <Authors>
Gonz치lez-Bello, C

> <Institution>
Universidade de Santiago de Compostela

> <Link to Ligand in BindingDB>
http://www.bindingdb.org/bind/chemsearch/marvin/MolStructure.jsp?monomerid=50450974

> <Link to Ligand-Target Pair in BindingDB>
http://www.bindingdb.org/jsp/dbsearch/PrimarySearch_ki.jsp?energyterm=kJ/mole&tag=pol&polymerid=50007713&target=Beta-lactamase+1&column=ki&startPg=0&Increment=50&submit=Search

> <Link to Ligand-Target Pair in BindingDB>
http://www.bindingdb.org/jsp/dbsearch/PrimarySearch_ki.jsp?energyterm=kJ/mole&tag=r21&monomerid=50450974&enzyme=Beta-lactamase+1&column=ki&startPg=0&Increment=50&submit=Search

> <Ligand HET ID in PDB>


> <PDB ID(s) for Ligand-Target Complex>


> <PubChem CID of Ligand>
145978095

> <PubChem SID of Ligand>
433920309

> <ChEBI ID of Ligand>


> <ChEMBL ID of Ligand>


> <DrugBank ID of Ligand>


> <IUPHAR_GRAC ID of Ligand>


> <KEGG ID of Ligand>


> <ZINC ID of Ligand>


> <Number of Protein Chains in Target (bigger than 1 implies a multichain complex)>
1

> <BindingDB Target Chain Sequence>
MKNKKMLKIGMCVGILGLSITSLVTFTGGALQVEAKEKTGQVKHKNQATHKEFSQLEKKF
DARLGVYAIDTGTNQTIAYRPNERFAFASTYKALAAGVLLQQNSTKKLDEVITYTKEDLV
DYSPVTEKHVDTGMTLGEIAEAAVRYSDNTAGNILFHKIGGPKGYEKALRKMGDRVTMSD
RFETELNEAIPGDIRDTSTAKAIARNLKDFTVGNALPHQKRNILTEWMKGNATGDKLIRA
GVPTDWVDADKSGAGSYGTRNDIAIVWPPNRSPIIIAILSSKDEKEATYDNQLIKEAAEV
VIDAIK

> <PDB ID(s) of Target Chain>


> <UniProt (SwissProt) Recommended Name of Target Chain>
Beta-lactamase 1

> <UniProt (SwissProt) Entry Name of Target Chain>
BLA1_BACCE

> <UniProt (SwissProt) Primary ID of Target Chain>
P10424

> <UniProt (SwissProt) Secondary ID(s) of Target Chain>


> <UniProt (SwissProt) Alternative ID(s) of Target Chain>


> <UniProt (TrEMBL) Submitted Name of Target Chain>


> <UniProt (TrEMBL) Entry Name of Target Chain>


> <UniProt (TrEMBL) Primary ID of Target Chain>


> <UniProt (TrEMBL) Secondary ID(s) of Target Chain>


> <UniProt (TrEMBL) Alternative ID(s) of Target Chain>


$$$$

     RDKit          2D

 21 22  0  0  0  0  0  0  0  0999 V2000
    5.2994   -8.8405    0.0000 O   0  0  0  0  0  0  0  0  0  0  0  0
    5.7121   -9.5504    0.0000 S   0  0  0  0  0  0  0  0  0  0  0  0
    6.1205   -8.8380    0.0000 O   0  0  0  0  0  0  0  0  0  0  0  0
    5.0084   -9.9639    0.0000 C   0  0  0  0  0  0  0  0  0  0  0  0
    6.4238   -9.9616    0.0000 C   0  0  0  0  0  0  0  0  0  0  0  0
    7.1309   -9.5519    0.0000 N   0  0  0  0  0  0  0  0  0  0  0  0
    6.4251  -10.7788    0.0000 O   0  0  0  0  0  0  0  0  0  0  0  0
    7.8393   -9.9594    0.0000 C   0  0  0  0  0  0  0  0  0  0  0  0
    8.5463   -9.5497    0.0000 B   0  0  0  0  0  0  0  0  0  0  0  0
    9.2547   -9.9572    0.0000 O   0  0  0  0  0  0  0  0  0  0  0  0
    8.5450   -8.7325    0.0000 O   0  0  0  0  0  0  0  0  0  0  0  0
    4.3006   -9.5568    0.0000 C   0  0  0  0  0  0  0  0  0  0  0  0
    3.5975   -9.9696    0.0000 C   0  0  0  0  0  0  0  0  0  0  0  0
    3.6032  -10.7866    0.0000 N   0  0  0  0  0  0  0  0  0  0  0  0
    4.3181  -11.1890    0.0000 C   0  0  0  0  0  0  0  0  0  0  0  0
    5.0183  -10.7739    0.0000 C   0  0  0  0  0  0  0  0  0  0  0  0
    2.8881   -9.5681    0.0000 C   0  0  0  0  0  0  0  0  0  0  0  0
    2.7968   -8.7560    0.0000 N   0  0  0  0  0  0  0  0  0  0  0  0
    1.9963   -8.5918    0.0000 N   0  0  0  0  0  0  0  0  0  0  0  0
    1.5927   -9.3025    0.0000 N   0  0  0  0  0  0  0  0  0  0  0  0
    2.1439   -9.9057    0.0000 N   0  0  0  0  0  0  0  0  0  0  0  0
  2  1  2  0
  3  2  2  0
  4  2  1  0
  2  5  1  0
  5  6  1  0
  5  7  2  0
  6  8  1  0
  8  9  1  0
  9 10  1  0
  9 11  1  0
  4 12  2  0
 12 13  1  0
 13 14  2  0
 14 15  1  0
 15 16  2  0
 16  4  1  0
 17 18  2  0
 18 19  1  0
 19 20  2  0
 20 21  1  0
 21 17  1  0
 13 17  1  0
M  END
> <From>
www.bindingDB.org

> <BindingDB Reactant_set_id>
51105937

> <Ligand InChI>
InChI=1S/C8H9BN6O5S/c16-8(11-4-9(17)18)21(19,20)5-1-2-10-6(3-5)7-12-14-15-13-7/h1-3,17-18H,4H2,(H,11,16)(H,12,13,14,15)

> <Ligand InChI Key>
ALJNKILBJVRYAA-UHFFFAOYSA-N

> <BindingDB MonomerID>
50450969

> <BindingDB Ligand Name>
CHEMBL4217629

> <Target Name>
Beta-lactamase 1

> <Target Source Organism According to Curator or DataSource>


> <Ki (nM)>
 0.800000

> <IC50 (nM)>


> <Kd (nM)>


> <EC50 (nM)>


> <kon (M-1-s-1)>


> <koff (s-1)>


> <pH>


> <Temp C>


> <Curation/DataSource>
ChEMBL

> <Article DOI>
10.1016/j.bmcl.2017.08.027

> <BindingDB Entry DOI>
10.7270/Q2N0193Z

> <PMID>
28827113

> <PubChem AID>


> <Patent Number>


> <Authors>
Gonz치lez-Bello, C

> <Institution>
Universidade de Santiago de Compostela

> <Link to Ligand in BindingDB>
http://www.bindingdb.org/bind/chemsearch/marvin/MolStructure.jsp?monomerid=50450969

> <Link to Ligand-Target Pair in BindingDB>
http://www.bindingdb.org/jsp/dbsearch/PrimarySearch_ki.jsp?energyterm=kJ/mole&tag=pol&polymerid=50007713&target=Beta-lactamase+1&column=ki&startPg=0&Increment=50&submit=Search

> <Link to Ligand-Target Pair in BindingDB>
http://www.bindingdb.org/jsp/dbsearch/PrimarySearch_ki.jsp?energyterm=kJ/mole&tag=r21&monomerid=50450969&enzyme=Beta-lactamase+1&column=ki&startPg=0&Increment=50&submit=Search

> <Ligand HET ID in PDB>


> <PDB ID(s) for Ligand-Target Complex>


> <PubChem CID of Ligand>
145973112

> <PubChem SID of Ligand>
433920307

> <ChEBI ID of Ligand>


> <ChEMBL ID of Ligand>


> <DrugBank ID of Ligand>


> <IUPHAR_GRAC ID of Ligand>


> <KEGG ID of Ligand>


> <ZINC ID of Ligand>


> <Number of Protein Chains in Target (bigger than 1 implies a multichain complex)>
1

> <BindingDB Target Chain Sequence>
MKNKKMLKIGMCVGILGLSITSLVTFTGGALQVEAKEKTGQVKHKNQATHKEFSQLEKKF
DARLGVYAIDTGTNQTIAYRPNERFAFASTYKALAAGVLLQQNSTKKLDEVITYTKEDLV
DYSPVTEKHVDTGMTLGEIAEAAVRYSDNTAGNILFHKIGGPKGYEKALRKMGDRVTMSD
RFETELNEAIPGDIRDTSTAKAIARNLKDFTVGNALPHQKRNILTEWMKGNATGDKLIRA
GVPTDWVDADKSGAGSYGTRNDIAIVWPPNRSPIIIAILSSKDEKEATYDNQLIKEAAEV
VIDAIK

> <PDB ID(s) of Target Chain>


> <UniProt (SwissProt) Recommended Name of Target Chain>
Beta-lactamase 1

> <UniProt (SwissProt) Entry Name of Target Chain>
BLA1_BACCE

> <UniProt (SwissProt) Primary ID of Target Chain>
P10424

> <UniProt (SwissProt) Secondary ID(s) of Target Chain>


> <UniProt (SwissProt) Alternative ID(s) of Target Chain>


> <UniProt (TrEMBL) Submitted Name of Target Chain>


> <UniProt (TrEMBL) Entry Name of Target Chain>


> <UniProt (TrEMBL) Primary ID of Target Chain>


> <UniProt (TrEMBL) Secondary ID(s) of Target Chain>


> <UniProt (TrEMBL) Alternative ID(s) of Target Chain>


$$$$

     RDKit          2D

 20 20  0  0  0  0  0  0  0  0999 V2000
    4.9981   -2.9056    0.0000 O   0  0  0  0  0  0  0  0  0  0  0  0
    5.4108   -3.6155    0.0000 S   0  0  0  0  0  0  0  0  0  0  0  0
    5.8192   -2.9031    0.0000 O   0  0  0  0  0  0  0  0  0  0  0  0
    2.5822   -2.8024    0.0000 C   0  0  0  0  0  0  0  0  0  0  0  0
    2.5811   -3.6219    0.0000 C   0  0  0  0  0  0  0  0  0  0  0  0
    3.2891   -4.0309    0.0000 C   0  0  0  0  0  0  0  0  0  0  0  0
    3.9988   -3.6214    0.0000 C   0  0  0  0  0  0  0  0  0  0  0  0
    3.9960   -2.7988    0.0000 C   0  0  0  0  0  0  0  0  0  0  0  0
    3.2873   -2.3935    0.0000 C   0  0  0  0  0  0  0  0  0  0  0  0
    1.8717   -4.0319    0.0000 C   0  0  0  0  0  0  0  0  0  0  0  0
    1.1643   -3.6227    0.0000 O   0  0  0  0  0  0  0  0  0  0  0  0
    1.8710   -4.8491    0.0000 O   0  0  0  0  0  0  0  0  0  0  0  0
    4.7071   -4.0289    0.0000 C   0  0  0  0  0  0  0  0  0  0  0  0
    6.1226   -4.0267    0.0000 C   0  0  0  0  0  0  0  0  0  0  0  0
    6.8296   -3.6170    0.0000 N   0  0  0  0  0  0  0  0  0  0  0  0
    6.1238   -4.8439    0.0000 O   0  0  0  0  0  0  0  0  0  0  0  0
    7.5380   -4.0245    0.0000 C   0  0  0  0  0  0  0  0  0  0  0  0
    8.2450   -3.6148    0.0000 B   0  0  0  0  0  0  0  0  0  0  0  0
    8.9534   -4.0222    0.0000 O   0  0  0  0  0  0  0  0  0  0  0  0
    8.2438   -2.7976    0.0000 O   0  0  0  0  0  0  0  0  0  0  0  0
  2  1  2  0
  3  2  2  0
  4  5  2  0
  5  6  1  0
  6  7  2  0
  7  8  1  0
  8  9  2  0
  9  4  1  0
 10 11  1  0
 10 12  2  0
  5 10  1  0
  7 13  1  0
 13  2  1  0
  2 14  1  0
 14 15  1  0
 14 16  2  0
 15 17  1  0
 17 18  1  0
 18 19  1  0
 18 20  1  0
M  END
> <From>
www.bindingDB.org

> <BindingDB Reactant_set_id>
51105940

> <Ligand InChI>
InChI=1S/C10H12BNO7S/c13-9(14)8-3-1-2-7(4-8)5-20(18,19)10(15)12-6-11(16)17/h1-4,16-17H,5-6H2,(H,12,15)(H,13,14)

> <Ligand InChI Key>
QHDNHPVOCKRDPE-UHFFFAOYSA-N

> <BindingDB MonomerID>
50450975

> <BindingDB Ligand Name>
CHEMBL4204887

> <Target Name>
Beta-lactamase 1

> <Target Source Organism According to Curator or DataSource>


> <Ki (nM)>
 1.3

> <IC50 (nM)>


> <Kd (nM)>


> <EC50 (nM)>


> <kon (M-1-s-1)>


> <koff (s-1)>


> <pH>


> <Temp C>


> <Curation/DataSource>
ChEMBL

> <Article DOI>
10.1016/j.bmcl.2017.08.027

> <BindingDB Entry DOI>
10.7270/Q2N0193Z

> <PMID>
28827113

> <PubChem AID>


> <Patent Number>


> <Authors>
Gonz치lez-Bello, C

> <Institution>
Universidade de Santiago de Compostela

> <Link to Ligand in BindingDB>
http://www.bindingdb.org/bind/chemsearch/marvin/MolStructure.jsp?monomerid=50450975

> <Link to Ligand-Target Pair in BindingDB>
http://www.bindingdb.org/jsp/dbsearch/PrimarySearch_ki.jsp?energyterm=kJ/mole&tag=pol&polymerid=50007713&target=Beta-lactamase+1&column=ki&startPg=0&Increment=50&submit=Search

> <Link to Ligand-Target Pair in BindingDB>
http://www.bindingdb.org/jsp/dbsearch/PrimarySearch_ki.jsp?energyterm=kJ/mole&tag=r21&monomerid=50450975&enzyme=Beta-lactamase+1&column=ki&startPg=0&Increment=50&submit=Search

> <Ligand HET ID in PDB>


> <PDB ID(s) for Ligand-Target Complex>


> <PubChem CID of Ligand>
145978052

> <PubChem SID of Ligand>
433920310

> <ChEBI ID of Ligand>


> <ChEMBL ID of Ligand>


> <DrugBank ID of Ligand>


> <IUPHAR_GRAC ID of Ligand>


> <KEGG ID of Ligand>


> <ZINC ID of Ligand>


> <Number of Protein Chains in Target (bigger than 1 implies a multichain complex)>
1

> <BindingDB Target Chain Sequence>
MKNKKMLKIGMCVGILGLSITSLVTFTGGALQVEAKEKTGQVKHKNQATHKEFSQLEKKF
DARLGVYAIDTGTNQTIAYRPNERFAFASTYKALAAGVLLQQNSTKKLDEVITYTKEDLV
DYSPVTEKHVDTGMTLGEIAEAAVRYSDNTAGNILFHKIGGPKGYEKALRKMGDRVTMSD
RFETELNEAIPGDIRDTSTAKAIARNLKDFTVGNALPHQKRNILTEWMKGNATGDKLIRA
GVPTDWVDADKSGAGSYGTRNDIAIVWPPNRSPIIIAILSSKDEKEATYDNQLIKEAAEV
VIDAIK

> <PDB ID(s) of Target Chain>


> <UniProt (SwissProt) Recommended Name of Target Chain>
Beta-lactamase 1

> <UniProt (SwissProt) Entry Name of Target Chain>
BLA1_BACCE

> <UniProt (SwissProt) Primary ID of Target Chain>
P10424

> <UniProt (SwissProt) Secondary ID(s) of Target Chain>


> <UniProt (SwissProt) Alternative ID(s) of Target Chain>


> <UniProt (TrEMBL) Submitted Name of Target Chain>


> <UniProt (TrEMBL) Entry Name of Target Chain>


> <UniProt (TrEMBL) Primary ID of Target Chain>


> <UniProt (TrEMBL) Secondary ID(s) of Target Chain>


> <UniProt (TrEMBL) Alternative ID(s) of Target Chain>


$$$$
 
  Mrv0541 11221409272D          

 28 29  0  0  0  0            999 V2000
    9.6189   -1.2150    0.0000 C   0  0  0  0  0  0  0  0  0  0  0  0
   10.3348   -0.8025    0.0000 C   0  0  1  0  0  0  0  0  0  0  0  0
   11.1339   -1.0135    0.0000 C   0  0  1  0  0  0  0  0  0  0  0  0
   11.3449   -0.2186    0.0000 C   0  0  0  0  0  0  0  0  0  0  0  0
   12.0608    0.1939    0.0000 O   0  0  0  0  0  0  0  0  0  0  0  0
   10.5500   -0.0034    0.0000 N   0  0  0  0  0  0  0  0  0  0  0  0
   10.1375    0.7124    0.0000 S   0  0  0  0  0  0  0  0  0  0  0  0
    9.4216    0.2999    0.0000 O   0  0  0  0  0  0  0  0  0  0  0  0
   10.8534    1.1249    0.0000 O   0  0  0  0  0  0  0  0  0  0  0  0
    9.7250    1.4241    0.0000 O   0  0  0  0  0  0  0  0  0  0  0  0
   11.5464   -1.7294    0.0000 N   0  0  0  0  0  0  0  0  0  0  0  0
   11.1339   -2.4453    0.0000 C   0  0  0  0  0  0  0  0  0  0  0  0
   10.3047   -2.4453    0.0000 O   0  0  0  0  0  0  0  0  0  0  0  0
   11.5464   -3.1570    0.0000 C   0  0  0  0  0  0  0  0  0  0  0  0
   11.1339   -3.8728    0.0000 N   0  0  0  0  0  0  0  0  0  0  0  0
   10.3047   -3.8728    0.0000 O   0  0  0  0  0  0  0  0  0  0  0  0
    9.8922   -4.5887    0.0000 C   0  0  0  0  0  0  0  0  0  0  0  0
    9.1805   -4.1762    0.0000 C   0  0  0  0  0  0  0  0  0  0  0  0
    9.4797   -5.3004    0.0000 C   0  0  0  0  0  0  0  0  0  0  0  0
   10.6081   -5.0012    0.0000 C   0  0  0  0  0  0  0  0  0  0  0  0
   10.6081   -5.8262    0.0000 O   0  0  0  0  0  0  0  0  0  0  0  0
   11.3239   -4.5887    0.0000 O   0  0  0  0  0  0  0  0  0  0  0  0
   12.3714   -3.1570    0.0000 C   0  0  0  0  0  0  0  0  0  0  0  0
   12.8561   -2.4915    0.0000 C   0  0  0  0  0  0  0  0  0  0  0  0
   13.6408   -2.7445    0.0000 S   0  0  0  0  0  0  0  0  0  0  0  0
   13.6408   -3.5695    0.0000 C   0  0  0  0  0  0  0  0  0  0  0  0
   12.8561   -3.8266    0.0000 N   0  0  0  0  0  0  0  0  0  0  0  0
   14.3062   -4.0542    0.0000 N   0  0  0  0  0  0  0  0  0  0  0  0
  2  1  1  6  0  0  0
  2  3  1  0  0  0  0
  3  4  1  0  0  0  0
  4  5  2  0  0  0  0
  4  6  1  0  0  0  0
  2  6  1  0  0  0  0
  6  7  1  0  0  0  0
  7  8  2  0  0  0  0
  7  9  2  0  0  0  0
  7 10  1  0  0  0  0
  3 11  1  1  0  0  0
 11 12  1  0  0  0  0
 12 13  2  0  0  0  0
 12 14  1  0  0  0  0
 14 15  2  0  0  0  0
 15 16  1  0  0  0  0
 16 17  1  0  0  0  0
 17 18  1  0  0  0  0
 17 19  1  0  0  0  0
 17 20  1  0  0  0  0
 20 21  2  0  0  0  0
 20 22  1  0  0  0  0
 14 23  1  0  0  0  0
 23 24  2  0  0  0  0
 24 25  1  0  0  0  0
 25 26  1  0  0  0  0
 26 27  2  0  0  0  0
 23 27  1  0  0  0  0
 26 28  1  0  0  0  0
M  END
> <From>
www.bindingDB.org

> <BindingDB Reactant_set_id>
50619886

> <Ligand InChI>
InChI=1S/C13H17N5O8S2/c1-5-7(10(20)18(5)28(23,24)25)16-9(19)8(6-4-27-12(14)15-6)17-26-13(2,3)11(21)22/h4-5,7H,1-3H3,(H2,14,15)(H,16,19)(H,21,22)(H,23,24,25)/b17-8-/t5-,7-/m0/s1

> <Ligand InChI Key>
WZPBZJONDBGPKJ-VEHQQRBSSA-N

> <BindingDB MonomerID>
50240480

> <BindingDB Ligand Name>
(2S,3S)-3-({(2Z)-2-(2-ammonio-1,3-thiazol-4-yl)-2-[(1-carboxy-1-methylethoxy)imino]ethanoyl}amino)-2-methyl-4-oxoazetidine-1-sulfonate::(2S,3S)-3-({(2Z)-2-(2-ammonio-1,3-thiazol-4-yl)-2-[(1-carboxy-1-methylethoxy)imino]ethanoyl}amino)-2-methyl-4-oxoazetidine-1-sulfonate(aztreonam)::2-[1-(2-Amino-thiazol-4-yl)-1-((2S,3S)-2-methyl-4-oxo-1-sulfo-azetidin-3-ylcarbamoyl)-meth-(Z)-ylideneaminooxy]-2-methyl-propionic acid::AZTREONAM::Azactam::Azetreonam::CHEMBL158::SQ-26776

> <Target Name>
Beta-lactamase

> <Target Source Organism According to Curator or DataSource>
Acinetobacter baumannii

> <Ki (nM)>
 7

> <IC50 (nM)>


> <Kd (nM)>


> <EC50 (nM)>


> <kon (M-1-s-1)>


> <koff (s-1)>


> <pH>


> <Temp C>


> <Curation/DataSource>
ChEMBL

> <Article DOI>
10.1128/AAC.00050-10

> <BindingDB Entry DOI>
10.7270/Q2348KM2

> <PMID>
20547808

> <PubChem AID>


> <Patent Number>


> <Authors>
Rodriguez-Martinez, JM; Nordmann, P; Ronco, E; Poirel, L

> <Institution>
Paris-Sud University

> <Link to Ligand in BindingDB>
http://www.bindingdb.org/bind/chemsearch/marvin/MolStructure.jsp?monomerid=50240480

> <Link to Ligand-Target Pair in BindingDB>
http://www.bindingdb.org/jsp/dbsearch/PrimarySearch_ki.jsp?energyterm=kJ/mole&tag=pol&polymerid=50004683&target=Beta-lactamase&column=ki&startPg=0&Increment=50&submit=Search

> <Link to Ligand-Target Pair in BindingDB>
http://www.bindingdb.org/jsp/dbsearch/PrimarySearch_ki.jsp?energyterm=kJ/mole&tag=r21&monomerid=50240480&enzyme=Beta-lactamase&column=ki&startPg=0&Increment=50&submit=Search

> <Ligand HET ID in PDB>


> <PDB ID(s) for Ligand-Target Complex>


> <PubChem CID of Ligand>
5742832

> <PubChem SID of Ligand>
104098313

> <ChEBI ID of Ligand>


> <ChEMBL ID of Ligand>
CHEMBL158

> <DrugBank ID of Ligand>


> <IUPHAR_GRAC ID of Ligand>


> <KEGG ID of Ligand>


> <ZINC ID of Ligand>
ZINC19795769

> <Number of Protein Chains in Target (bigger than 1 implies a multichain complex)>
1

> <BindingDB Target Chain Sequence>
LFIFNTSIYAGNTPKDQEIKKLVDQNFKPLLEKYDVPGMAVGVIQNNKKYEMYYGLQSVQDKKAVNSSTIFELGSVSKLFTATAGAYAKNKGKISFDDTPGKYWKELKNTPIDQVNLLQLATYTSGNLALQFPDEVQTDQQVLTFFKDWKPKNPIGEYRQYSNPSIGLFGKVVALSMNKPFDQVLEKIIFPALGLKHSYVNVAKTQMQNYAFGYNQENQPIRVNPGPLDAPAYGVKSTLPDMLSFIHANLNPQKYPADIQRAINETHQGRYQVNTMYQALGWEEFSYPATLQTLLDSNSEQIVMKPNKVTAISKEPSVKMYHKTGSTNGFGTYVVFIPKENIGLVMLTNKRIPNEERIK

> <PDB ID(s) of Target Chain>
4QD4,8CUP,8CUQ,8FQN,8FQO,8FQV,8FQW

> <UniProt (SwissProt) Recommended Name of Target Chain>


> <UniProt (SwissProt) Entry Name of Target Chain>


> <UniProt (SwissProt) Primary ID of Target Chain>


> <UniProt (SwissProt) Secondary ID(s) of Target Chain>


> <UniProt (SwissProt) Alternative ID(s) of Target Chain>


> <UniProt (TrEMBL) Submitted Name of Target Chain>
Beta-lactamase

> <UniProt (TrEMBL) Entry Name of Target Chain>
B2ZTR6_ACIBA

> <UniProt (TrEMBL) Primary ID of Target Chain>
B2ZTR6

> <UniProt (TrEMBL) Secondary ID(s) of Target Chain>


> <UniProt (TrEMBL) Alternative ID(s) of Target Chain>


$$$$

  Mrv0541 11221409162D          

 22 24  0  0  0  0            999 V2000
   -1.1202  -10.2431    0.0000 C   0  0  0  0  0  0  0  0  0  0  0  0
   -1.1213  -11.0648    0.0000 C   0  0  0  0  0  0  0  0  0  0  0  0
   -0.4036  -11.4768    0.0000 C   0  0  0  0  0  0  0  0  0  0  0  0
   -0.4054   -9.8311    0.0000 C   0  0  0  0  0  0  0  0  0  0  0  0
    0.3044  -10.2394    0.0000 C   0  0  0  0  0  0  0  0  0  0  0  0
    0.3046  -11.0648    0.0000 C   0  0  0  0  0  0  0  0  0  0  0  0
    1.0894  -11.3167    0.0000 S   0  0  0  0  0  0  0  0  0  0  0  0
    1.5685  -10.6579    0.0000 C   0  0  0  0  0  0  0  0  0  0  0  0
    1.0890   -9.9871    0.0000 C   0  0  0  0  0  0  0  0  0  0  0  0
    2.3920  -10.6618    0.0000 B   0  0  0  0  0  0  0  0  0  0  0  0
    2.8040  -11.3707    0.0000 O   0  0  0  0  0  0  0  0  0  0  0  0
    2.8035   -9.9444    0.0000 O   0  0  0  0  0  0  0  0  0  0  0  0
   -1.8417   -9.8274    0.0000 C   0  0  0  0  0  0  0  0  0  0  0  0
   -2.5531  -10.2432    0.0000 N   0  0  0  0  0  0  0  0  0  0  0  0
   -3.2704   -9.8359    0.0000 C   0  0  0  0  0  0  0  0  0  0  0  0
   -3.2736   -9.0158    0.0000 C   0  0  0  0  0  0  0  0  0  0  0  0
   -3.9860   -8.6043    0.0000 C   0  0  0  0  0  0  0  0  0  0  0  0
   -4.7125   -9.0204    0.0000 C   0  0  0  0  0  0  0  0  0  0  0  0
   -4.7055   -9.8482    0.0000 C   0  0  0  0  0  0  0  0  0  0  0  0
   -3.9842  -10.2559    0.0000 C   0  0  0  0  0  0  0  0  0  0  0  0
   -5.4470   -8.6182    0.0000 Cl  0  0  0  0  0  0  0  0  0  0  0  0
   -5.4253  -10.2709    0.0000 Cl  0  0  0  0  0  0  0  0  0  0  0  0
  5  6  1  0  0  0  0
 10 11  1  0  0  0  0
 10 12  1  0  0  0  0
  2  3  1  0  0  0  0
  1 13  1  0  0  0  0
  3  6  2  0  0  0  0
 13 14  1  0  0  0  0
  1  2  2  0  0  0  0
 14 15  1  0  0  0  0
  5  4  2  0  0  0  0
 15 16  2  0  0  0  0
  6  7  1  0  0  0  0
 16 17  1  0  0  0  0
  7  8  1  0  0  0  0
 17 18  2  0  0  0  0
  8  9  2  0  0  0  0
 18 19  1  0  0  0  0
  9  5  1  0  0  0  0
 19 20  2  0  0  0  0
 20 15  1  0  0  0  0
  4  1  1  0  0  0  0
 18 21  1  0  0  0  0
  8 10  1  0  0  0  0
 19 22  1  0  0  0  0
M  END
> <From>
www.bindingDB.org

> <BindingDB Reactant_set_id>
50404423

> <Ligand InChI>
InChI=1S/C15H12BCl2NO2S/c17-12-3-2-11(7-13(12)18)19-8-9-1-4-14-10(5-9)6-15(22-14)16(20)21/h1-7,19-21H,8H2

> <Ligand InChI Key>
WJLXVAIRFZLEMT-UHFFFAOYSA-N

> <BindingDB MonomerID>
50225373

> <BindingDB Ligand Name>
CHEMBL396872::pinacol 5-[(3,4-dichlorophenylamino)methyl]benzo[b]thiophen-2-ylboronate

> <Target Name>
Beta-lactamase TEM

> <Target Source Organism According to Curator or DataSource>


> <Ki (nM)>
 10

> <IC50 (nM)>


> <Kd (nM)>


> <EC50 (nM)>


> <kon (M-1-s-1)>


> <koff (s-1)>


> <pH>


> <Temp C>


> <Curation/DataSource>
ChEMBL

> <Article DOI>
10.1021/jm070643q

> <BindingDB Entry DOI>
10.7270/Q21N80W5

> <PMID>
17956081

> <PubChem AID>


> <Patent Number>


> <Authors>
Venturelli, A; Tondi, D; Cancian, L; Morandi, F; Cannazza, G; Segatore, B; Prati, F; Amicosante, G; Shoichet, BK; Costi, MP

> <Institution>
Universit&#224; degli Studi di Modena e Reggio Emilia

> <Link to Ligand in BindingDB>
http://www.bindingdb.org/bind/chemsearch/marvin/MolStructure.jsp?monomerid=50225373

> <Link to Ligand-Target Pair in BindingDB>
http://www.bindingdb.org/jsp/dbsearch/PrimarySearch_ki.jsp?energyterm=kJ/mole&tag=pol&polymerid=7704&target=Beta-lactamase+TEM&column=ki&startPg=0&Increment=50&submit=Search

> <Link to Ligand-Target Pair in BindingDB>
http://www.bindingdb.org/jsp/dbsearch/PrimarySearch_ki.jsp?energyterm=kJ/mole&tag=r21&monomerid=50225373&enzyme=Beta-lactamase+TEM&column=ki&startPg=0&Increment=50&submit=Search

> <Ligand HET ID in PDB>


> <PDB ID(s) for Ligand-Target Complex>


> <PubChem CID of Ligand>
23655482

> <PubChem SID of Ligand>
104096679

> <ChEBI ID of Ligand>


> <ChEMBL ID of Ligand>
CHEMBL396872

> <DrugBank ID of Ligand>


> <IUPHAR_GRAC ID of Ligand>


> <KEGG ID of Ligand>


> <ZINC ID of Ligand>


> <Number of Protein Chains in Target (bigger than 1 implies a multichain complex)>
1

> <BindingDB Target Chain Sequence>
MSIQHFRVALIPFFAAFCLPVFAHPETLVKVKDAEDQLGARVGYIELDLNSGKILESFRPEERFPMMSTFKVLLCGAVLSRVDAGQEQLGRRIHYSQNDLVEYSPVTEKHLTDGMTVRELCSAAITMSDNTAANLLLTTIGGPKELTAFLHNMGDHVTRLDRWEPELNEAIPNDERDTTMPAAMATTLRKLLTGELLTLASRQQLIDWMEADKVAGPLLRSALPAGWFIADKSGAGERGSRGIIAALGPDGKPSRIVVIYTTGSQATMDERNRQIAEIGASLIKHW

> <PDB ID(s) of Target Chain>
1ERM,1ERO,1ERQ,1ESU,1FQG,1JTD,1JVJ,1JWP,1JWV,1LHY,1LI9,1M40,1NXY,1NY0,1NYM,1NYY,1PZO,1PZP,1S0W,1XPB,1YT4,2V1Z,2V20,3CMZ,3DTM,3JYI,3P98,4DXB,4DXC,4GKU,4ZJ2,5AQ8,5HVI,5HW1,5HW5,5NPO,6B2N,7QLP,7QNK,7U6Q,8DE0

> <UniProt (SwissProt) Recommended Name of Target Chain>
Beta-lactamase TEM

> <UniProt (SwissProt) Entry Name of Target Chain>
BLAT_ECOLX

> <UniProt (SwissProt) Primary ID of Target Chain>
P62593

> <UniProt (SwissProt) Secondary ID(s) of Target Chain>
P00810 Q47313

> <UniProt (SwissProt) Alternative ID(s) of Target Chain>


> <UniProt (TrEMBL) Submitted Name of Target Chain>


> <UniProt (TrEMBL) Entry Name of Target Chain>


> <UniProt (TrEMBL) Primary ID of Target Chain>


> <UniProt (TrEMBL) Secondary ID(s) of Target Chain>


> <UniProt (TrEMBL) Alternative ID(s) of Target Chain>


$$$$

  Mrv0541 11231414582D          

 20 22  0  0  0  0            999 V2000
   -0.2074  -22.4800    0.0000 C   0  0  0  0  0  0  0  0  0  0  0  0
   -0.2084  -23.3063    0.0000 C   0  0  0  0  0  0  0  0  0  0  0  0
    0.5051  -23.7186    0.0000 C   0  0  0  0  0  0  0  0  0  0  0  0
    0.5034  -22.0677    0.0000 C   0  0  0  0  0  0  0  0  0  0  0  0
    1.2175  -22.4766    0.0000 C   0  0  0  0  0  0  0  0  0  0  0  0
    1.2176  -23.3018    0.0000 C   0  0  0  0  0  0  0  0  0  0  0  0
    2.0024  -23.5567    0.0000 C   0  0  0  0  0  0  0  0  0  0  0  0
    2.4874  -22.8891    0.0000 O   0  0  0  0  0  0  0  0  0  0  0  0
    2.0023  -22.2215    0.0000 B   0  0  0  0  0  0  0  0  0  0  0  0
    2.2568  -21.4378    0.0000 O   0  0  0  0  0  0  0  0  0  0  0  0
   -0.9212  -22.0682    0.0000 O   0  0  0  0  0  0  0  0  0  0  0  0
   -1.6347  -22.4805    0.0000 C   0  0  0  0  0  0  0  0  0  0  0  0
   -2.3467  -22.0643    0.0000 N   0  0  0  0  0  0  0  0  0  0  0  0
   -3.0598  -22.4760    0.0000 C   0  0  0  0  0  0  0  0  0  0  0  0
   -3.0599  -23.3010    0.0000 C   0  0  0  0  0  0  0  0  0  0  0  0
   -2.3410  -23.7126    0.0000 N   0  0  0  0  0  0  0  0  0  0  0  0
   -1.6310  -23.2986    0.0000 C   0  0  0  0  0  0  0  0  0  0  0  0
   -3.7746  -23.7149    0.0000 C   0  0  0  0  0  0  0  0  0  0  0  0
   -4.4889  -23.3040    0.0000 O   0  0  0  0  0  0  0  0  0  0  0  0
   -3.7732  -24.5390    0.0000 O   0  0  0  0  0  0  0  0  0  0  0  0
  4  1  2  0  0  0  0
  9 10  1  0  0  0  0
  5  6  2  0  0  0  0
  1 11  1  0  0  0  0
 11 12  1  0  0  0  0
  2  3  2  0  0  0  0
 12 13  2  0  0  0  0
  3  6  1  0  0  0  0
 13 14  1  0  0  0  0
  1  2  1  0  0  0  0
 14 15  2  0  0  0  0
  5  4  1  0  0  0  0
 15 16  1  0  0  0  0
  6  7  1  0  0  0  0
 16 17  2  0  0  0  0
 17 12  1  0  0  0  0
  7  8  1  0  0  0  0
  8  9  1  0  0  0  0
  9  5  1  0  0  0  0
 18 19  1  0  0  0  0
 18 20  2  0  0  0  0
 15 18  1  0  0  0  0
M  END
> <From>
www.bindingDB.org

> <BindingDB Reactant_set_id>
50629880

> <Ligand InChI>
InChI=1S/C12H9BN2O5/c16-12(17)10-4-15-11(5-14-10)20-8-2-1-7-6-19-13(18)9(7)3-8/h1-5,18H,6H2,(H,16,17)

> <Ligand InChI Key>
ZQEMCCCUMXEPCN-UHFFFAOYSA-N

> <BindingDB MonomerID>
50339869

> <BindingDB Ligand Name>
5-(1-hydroxy-1,3-dihydrobenzo[c][1,2]oxaborol-6-yloxy)pyrazine-2-carboxylic acid::CHEMBL1761275

> <Target Name>
Beta-lactamase

> <Target Source Organism According to Curator or DataSource>
Enterobacter cloacae

> <Ki (nM)>
 20

> <IC50 (nM)>


> <Kd (nM)>


> <EC50 (nM)>


> <kon (M-1-s-1)>


> <koff (s-1)>


> <pH>


> <Temp C>


> <Curation/DataSource>
ChEMBL

> <Article DOI>
10.1016/j.bmcl.2011.02.024

> <BindingDB Entry DOI>
10.7270/Q2G44QK5

> <PMID>
21392987

> <PubChem AID>


> <Patent Number>


> <Authors>
Xia, Y; Cao, K; Zhou, Y; Alley, MR; Rock, F; Mohan, M; Meewan, M; Baker, SJ; Lux, S; Ding, CZ; Jia, G; Kully, M; Plattner, JJ

> <Institution>
Anacor Pharmaceuticals Inc

> <Link to Ligand in BindingDB>
http://www.bindingdb.org/bind/chemsearch/marvin/MolStructure.jsp?monomerid=50339869

> <Link to Ligand-Target Pair in BindingDB>
http://www.bindingdb.org/jsp/dbsearch/PrimarySearch_ki.jsp?energyterm=kJ/mole&tag=pol&polymerid=50002394&target=Beta-lactamase&column=ki&startPg=0&Increment=50&submit=Search

> <Link to Ligand-Target Pair in BindingDB>
http://www.bindingdb.org/jsp/dbsearch/PrimarySearch_ki.jsp?energyterm=kJ/mole&tag=r21&monomerid=50339869&enzyme=Beta-lactamase&column=ki&startPg=0&Increment=50&submit=Search

> <Ligand HET ID in PDB>


> <PDB ID(s) for Ligand-Target Complex>


> <PubChem CID of Ligand>
52918287

> <PubChem SID of Ligand>
131342805

> <ChEBI ID of Ligand>


> <ChEMBL ID of Ligand>
CHEMBL1761275

> <DrugBank ID of Ligand>


> <IUPHAR_GRAC ID of Ligand>


> <KEGG ID of Ligand>


> <ZINC ID of Ligand>


> <Number of Protein Chains in Target (bigger than 1 implies a multichain complex)>
1

> <BindingDB Target Chain Sequence>
MMRKSLCCALLLGISCSALATPVSEKQLAEVVANTITPLMKAQSVPGMAVAVIYQGKPHYYTFGKADIAANKPVTPQTLFELGSISKTFTGVLGGDAIARGEISLDDAVTRYWPQLTGKQWQGIRMLDLATYTAGGLPLQVPDEVTDNASLLRFYQNWQPQWKPGTTRLYANASIGLFGALAVKPSGMPYEQAMTTRVLKPLKLDHTWINVPKAEEAHYAWGYRDGKAVRVSPGMLDAQAYGVKTNVQDMANWVMANMAPENVADASLKQGIALAQSRYWRIGSMYQGLGWEMLNWPVEANTVVEGSDSKVALAPLPVAEVNPPAPPVKASWVHKTGSTGGFGSYVAFIPEKQIGIVMLANTSYPNPARVEAAYHILEALQ

> <PDB ID(s) of Target Chain>
1XX2,2Q9M,2Q9N,7TI1

> <UniProt (SwissProt) Recommended Name of Target Chain>
Beta-lactamase

> <UniProt (SwissProt) Entry Name of Target Chain>
AMPC_ENTCL

> <UniProt (SwissProt) Primary ID of Target Chain>
P05364

> <UniProt (SwissProt) Secondary ID(s) of Target Chain>


> <UniProt (SwissProt) Alternative ID(s) of Target Chain>


> <UniProt (TrEMBL) Submitted Name of Target Chain>


> <UniProt (TrEMBL) Entry Name of Target Chain>


> <UniProt (TrEMBL) Primary ID of Target Chain>


> <UniProt (TrEMBL) Secondary ID(s) of Target Chain>


> <UniProt (TrEMBL) Alternative ID(s) of Target Chain>


$$$$

  Mrv0541 11231414582D          

 20 22  0  0  0  0            999 V2000
   24.0879  -18.0027    0.0000 C   0  0  0  0  0  0  0  0  0  0  0  0
   24.0867  -18.8294    0.0000 C   0  0  0  0  0  0  0  0  0  0  0  0
   24.8007  -19.2420    0.0000 C   0  0  0  0  0  0  0  0  0  0  0  0
   24.7990  -17.5902    0.0000 C   0  0  0  0  0  0  0  0  0  0  0  0
   25.5133  -17.9993    0.0000 C   0  0  0  0  0  0  0  0  0  0  0  0
   25.5134  -18.8249    0.0000 C   0  0  0  0  0  0  0  0  0  0  0  0
   26.2987  -19.0800    0.0000 C   0  0  0  0  0  0  0  0  0  0  0  0
   26.7840  -18.4119    0.0000 O   0  0  0  0  0  0  0  0  0  0  0  0
   26.2985  -17.7442    0.0000 B   0  0  0  0  0  0  0  0  0  0  0  0
   26.5532  -16.9600    0.0000 O   0  0  0  0  0  0  0  0  0  0  0  0
   23.3736  -17.5907    0.0000 O   0  0  0  0  0  0  0  0  0  0  0  0
   22.6598  -18.0032    0.0000 C   0  0  0  0  0  0  0  0  0  0  0  0
   21.9475  -17.5869    0.0000 C   0  0  0  0  0  0  0  0  0  0  0  0
   21.2341  -17.9987    0.0000 C   0  0  0  0  0  0  0  0  0  0  0  0
   21.2339  -18.8241    0.0000 C   0  0  0  0  0  0  0  0  0  0  0  0
   21.9532  -19.2359    0.0000 C   0  0  0  0  0  0  0  0  0  0  0  0
   22.6636  -18.8217    0.0000 C   0  0  0  0  0  0  0  0  0  0  0  0
   20.5190  -19.2383    0.0000 C   0  0  0  0  0  0  0  0  0  0  0  0
   19.8043  -18.8272    0.0000 O   0  0  0  0  0  0  0  0  0  0  0  0
   20.5204  -20.0627    0.0000 O   0  0  0  0  0  0  0  0  0  0  0  0
  4  1  2  0  0  0  0
  9 10  1  0  0  0  0
  5  6  2  0  0  0  0
  1 11  1  0  0  0  0
 11 12  1  0  0  0  0
  2  3  2  0  0  0  0
 12 13  2  0  0  0  0
  3  6  1  0  0  0  0
 13 14  1  0  0  0  0
  1  2  1  0  0  0  0
 14 15  2  0  0  0  0
  5  4  1  0  0  0  0
 15 16  1  0  0  0  0
  6  7  1  0  0  0  0
 16 17  2  0  0  0  0
 17 12  1  0  0  0  0
  7  8  1  0  0  0  0
  8  9  1  0  0  0  0
  9  5  1  0  0  0  0
 18 19  1  0  0  0  0
 18 20  2  0  0  0  0
 15 18  1  0  0  0  0
M  END
> <From>
www.bindingDB.org

> <BindingDB Reactant_set_id>
50629879

> <Ligand InChI>
InChI=1S/C14H11BO5/c16-14(17)9-1-4-11(5-2-9)20-12-6-3-10-8-19-15(18)13(10)7-12/h1-7,18H,8H2,(H,16,17)

> <Ligand InChI Key>
UVIWTXKCGYBIJT-UHFFFAOYSA-N

> <BindingDB MonomerID>
50339868

> <BindingDB Ligand Name>
4-(1-hydroxy-1,3-dihydrobenzo[c][1,2]oxaborol-6-yloxy)benzoic acid::CHEMBL1761274

> <Target Name>
Beta-lactamase

> <Target Source Organism According to Curator or DataSource>
Enterobacter cloacae

> <Ki (nM)>
 20

> <IC50 (nM)>


> <Kd (nM)>


> <EC50 (nM)>


> <kon (M-1-s-1)>


> <koff (s-1)>


> <pH>


> <Temp C>


> <Curation/DataSource>
ChEMBL

> <Article DOI>
10.1016/j.bmcl.2011.02.024

> <BindingDB Entry DOI>
10.7270/Q2G44QK5

> <PMID>
21392987

> <PubChem AID>


> <Patent Number>


> <Authors>
Xia, Y; Cao, K; Zhou, Y; Alley, MR; Rock, F; Mohan, M; Meewan, M; Baker, SJ; Lux, S; Ding, CZ; Jia, G; Kully, M; Plattner, JJ

> <Institution>
Anacor Pharmaceuticals Inc

> <Link to Ligand in BindingDB>
http://www.bindingdb.org/bind/chemsearch/marvin/MolStructure.jsp?monomerid=50339868

> <Link to Ligand-Target Pair in BindingDB>
http://www.bindingdb.org/jsp/dbsearch/PrimarySearch_ki.jsp?energyterm=kJ/mole&tag=pol&polymerid=50002394&target=Beta-lactamase&column=ki&startPg=0&Increment=50&submit=Search

> <Link to Ligand-Target Pair in BindingDB>
http://www.bindingdb.org/jsp/dbsearch/PrimarySearch_ki.jsp?energyterm=kJ/mole&tag=r21&monomerid=50339868&enzyme=Beta-lactamase&column=ki&startPg=0&Increment=50&submit=Search

> <Ligand HET ID in PDB>


> <PDB ID(s) for Ligand-Target Complex>


> <PubChem CID of Ligand>
44480162

> <PubChem SID of Ligand>
131342804

> <ChEBI ID of Ligand>


> <ChEMBL ID of Ligand>
CHEMBL1761274

> <DrugBank ID of Ligand>


> <IUPHAR_GRAC ID of Ligand>


> <KEGG ID of Ligand>


> <ZINC ID of Ligand>


> <Number of Protein Chains in Target (bigger than 1 implies a multichain complex)>
1

> <BindingDB Target Chain Sequence>
MMRKSLCCALLLGISCSALATPVSEKQLAEVVANTITPLMKAQSVPGMAVAVIYQGKPHYYTFGKADIAANKPVTPQTLFELGSISKTFTGVLGGDAIARGEISLDDAVTRYWPQLTGKQWQGIRMLDLATYTAGGLPLQVPDEVTDNASLLRFYQNWQPQWKPGTTRLYANASIGLFGALAVKPSGMPYEQAMTTRVLKPLKLDHTWINVPKAEEAHYAWGYRDGKAVRVSPGMLDAQAYGVKTNVQDMANWVMANMAPENVADASLKQGIALAQSRYWRIGSMYQGLGWEMLNWPVEANTVVEGSDSKVALAPLPVAEVNPPAPPVKASWVHKTGSTGGFGSYVAFIPEKQIGIVMLANTSYPNPARVEAAYHILEALQ

> <PDB ID(s) of Target Chain>
1XX2,2Q9M,2Q9N,7TI1

> <UniProt (SwissProt) Recommended Name of Target Chain>
Beta-lactamase

> <UniProt (SwissProt) Entry Name of Target Chain>
AMPC_ENTCL

> <UniProt (SwissProt) Primary ID of Target Chain>
P05364

> <UniProt (SwissProt) Secondary ID(s) of Target Chain>


> <UniProt (SwissProt) Alternative ID(s) of Target Chain>


> <UniProt (TrEMBL) Submitted Name of Target Chain>


> <UniProt (TrEMBL) Entry Name of Target Chain>


> <UniProt (TrEMBL) Primary ID of Target Chain>


> <UniProt (TrEMBL) Secondary ID(s) of Target Chain>


> <UniProt (TrEMBL) Alternative ID(s) of Target Chain>


$$$$

  Mrv0541 11191401012D          

 22 22  0  0  0  0            999 V2000
   -2.0921    2.6815    0.0000 C   0  0  0  0  0  0  0  0  0  0  0  0
   -1.3776    3.0940    0.0000 C   0  0  0  0  0  0  0  0  0  0  0  0
   -0.6630    2.6815    0.0000 N   0  0  0  0  0  0  0  0  0  0  0  0
   -1.3776    3.9191    0.0000 O   0  0  0  0  0  0  0  0  0  0  0  0
    0.0514    3.0940    0.0000 C   0  0  0  0  0  0  0  0  0  0  0  0
    0.7660    2.6815    0.0000 B   0  0  0  0  0  0  0  0  0  0  0  0
    1.4805    3.0940    0.0000 O   0  0  0  0  0  0  0  0  0  0  0  0
    0.7660    1.8564    0.0000 O   0  0  0  0  0  0  0  0  0  0  0  0
   -2.8066    3.0940    0.0000 C   0  0  0  0  0  0  0  0  0  0  0  0
   -2.0921    1.8564    0.0000 N   0  0  0  0  0  0  0  0  0  0  0  0
   -3.7987    3.9872    0.0000 S   0  0  0  0  0  0  0  0  0  0  0  0
   -4.1343    3.2335    0.0000 C   0  0  0  0  0  0  0  0  0  0  0  0
   -3.5211    2.6814    0.0000 N   0  0  0  0  0  0  0  0  0  0  0  0
   -2.9782    3.9010    0.0000 C   0  0  0  0  0  0  0  0  0  0  0  0
   -4.9412    3.0619    0.0000 S   0  0  0  0  0  0  0  0  0  0  0  0
   -2.8066    1.4439    0.0000 O   0  0  0  0  0  0  0  0  0  0  0  0
   -2.8066    0.6188    0.0000 C   0  0  0  0  0  0  0  0  0  0  0  0
   -2.1951    1.0608    0.0000 C   0  0  0  0  0  0  0  0  0  0  0  0
   -2.0921    0.2063    0.0000 C   0  0  0  0  0  0  0  0  0  0  0  0
   -2.8066   -0.2062    0.0000 C   0  0  0  0  0  0  0  0  0  0  0  0
   -2.0921   -0.6187    0.0000 O   0  0  0  0  0  0  0  0  0  0  0  0
   -3.5211   -0.6187    0.0000 O   0  5  0  0  0  0  0  0  0  0  0  0
  1  2  1  0  0  0  0
  2  3  1  0  0  0  0
  2  4  2  0  0  0  0
  3  5  1  0  0  0  0
  5  6  1  0  0  0  0
  6  7  1  0  0  0  0
  6  8  1  0  0  0  0
  1  9  1  0  0  0  0
  1 10  2  0  0  0  0
 13  9  1  0  0  0  0
  9 14  2  0  0  0  0
 11 12  1  0  0  0  0
 12 13  2  0  0  0  0
 11 14  1  0  0  0  0
 12 15  1  0  0  0  0
 10 16  1  0  0  0  0
 16 17  1  0  0  0  0
 17 18  1  0  0  0  0
 17 19  1  0  0  0  0
 17 20  1  0  0  0  0
 20 21  2  0  0  0  0
 20 22  1  0  0  0  0
M  CHG  1  22  -1
M  END
> <From>
www.bindingDB.org

> <BindingDB Reactant_set_id>
74792

> <Ligand InChI>
InChI=1S/C10H14BN3O6S2/c1-10(2,8(16)17)20-14-6(5-3-22-9(21)13-5)7(15)12-4-11(18)19/h3,18-19H,4H2,1-2H3,(H,12,15)(H,13,21)(H,16,17)/p-1/b14-6+

> <Ligand InChI Key>
MOINTUJITCEJPI-MKMNVTDBSA-M

> <BindingDB MonomerID>
39816

> <BindingDB Ligand Name>
Acylglycineboronic acid, 15

> <Target Name>
Beta-lactamase

> <Target Source Organism According to Curator or DataSource>
Escherichia coli

> <Ki (nM)>
 20

> <IC50 (nM)>


> <Kd (nM)>


> <EC50 (nM)>


> <kon (M-1-s-1)>


> <koff (s-1)>


> <pH>
7

> <Temp C>


> <Curation/DataSource>
Curated from the literature by BindingDB

> <Article DOI>
10.1016/S1074-5521(00)00052-1

> <BindingDB Entry DOI>
10.7270/Q2CC0Z3R

> <PMID>
11182316

> <PubChem AID>
aid1799471

> <Patent Number>


> <Authors>
Caselli, E; Powers, RA; Blasczcak, LC; Wu, CY; Prati, F; Shoichet, BK

> <Institution>
Northwestern University

> <Link to Ligand in BindingDB>
http://www.bindingdb.org/bind/chemsearch/marvin/MolStructure.jsp?monomerid=39816

> <Link to Ligand-Target Pair in BindingDB>
http://www.bindingdb.org/jsp/dbsearch/PrimarySearch_ki.jsp?energyterm=kJ/mole&tag=pol&polymerid=4401&target=Beta-lactamase&column=ki&startPg=0&Increment=50&submit=Search

> <Link to Ligand-Target Pair in BindingDB>
http://www.bindingdb.org/jsp/dbsearch/PrimarySearch_ki.jsp?energyterm=kJ/mole&tag=r21&monomerid=39816&enzyme=Beta-lactamase&column=ki&startPg=0&Increment=50&submit=Search

> <Ligand HET ID in PDB>


> <PDB ID(s) for Ligand-Target Complex>


> <PubChem CID of Ligand>
52939989

> <PubChem SID of Ligand>
123080124

> <ChEBI ID of Ligand>
29067

> <ChEMBL ID of Ligand>


> <DrugBank ID of Ligand>


> <IUPHAR_GRAC ID of Ligand>


> <KEGG ID of Ligand>


> <ZINC ID of Ligand>


> <Number of Protein Chains in Target (bigger than 1 implies a multichain complex)>
1

> <BindingDB Target Chain Sequence>
MFKTTLCALLITASCSTFAAPQQINDIVHRTITPLIEQQKIPGMAVAVIYQGKPYYFTWGYADIAKKQPVTQQTLFELGSVSKTFTGVLGGDAIARGEIKLSDPTTKYWPELTAKQWNGITLLHLATYTAGGLPLQVPDEVKSSSDLLRFYQNWQPAWAPGTQRLYANSSIGLFGALAVKPSGLSFEQAMQTRVFQPLKLNHTWINVPPAEEKNYAWGYREGKAVHVSPGALDAEAYGVKSTIEDMARWVQSNLKPLDINEKTLQQGIQLAQSRYWQTGDMYQGLGWEMLDWPVNPDSIINGSDNKIALAARPVKAITPPTPAVRASWVHKTGATGGFGSYVAFIPEKELGIVMLANKNYPNPARVDAAWQILNALQ

> <PDB ID(s) of Target Chain>
1C3B,1FCO,1FSW,1FSY,1GA9,1IEL,1IEM,1KDS,1KDW,1KE0,1KE3,1KE4,1KVM,1L2S,1LL5,1LL9,1LLB,1MXO,1MY8,1XGI,1XGJ,2BLS,2HDQ,2HDR,2HDS,2HDU,2I72,2P9V,2PU2,2PU4,2R9W,2R9X,2RCX,3BLS,3BM6,3GQZ,3GR2,3GRJ,3GSG,3GTC,3GV9,3GVB,3O86,3O87,3O88,4E3I,4E3J,4E3K,4E3L,4E3M,4E3N,4E3O,4JXG,4JXS,4JXV,4JXW,4KG2,4KZ3,4KZ4,4KZ5,4KZ6,4KZ7,4KZ8,4KZ9,4KZA,4KZB,4LV0,4LV1,4LV2,4LV3,4OKP,4OLD,4OLG,6DPT,6DPX,6DPY,6DPZ,6T35,6T3D,6T5Y,6T7L,6TBW,6TPM,6WGQ,6YEN,6YEO,6YPD

> <UniProt (SwissProt) Recommended Name of Target Chain>
Beta-lactamase

> <UniProt (SwissProt) Entry Name of Target Chain>
AMPC_ECOLI

> <UniProt (SwissProt) Primary ID of Target Chain>
P00811

> <UniProt (SwissProt) Secondary ID(s) of Target Chain>
Q2M6F2

> <UniProt (SwissProt) Alternative ID(s) of Target Chain>


> <UniProt (TrEMBL) Submitted Name of Target Chain>


> <UniProt (TrEMBL) Entry Name of Target Chain>


> <UniProt (TrEMBL) Primary ID of Target Chain>


> <UniProt (TrEMBL) Secondary ID(s) of Target Chain>


> <UniProt (TrEMBL) Alternative ID(s) of Target Chain>


$$$$

  Mrv0541 11211411482D          

 22 22  0  0  0  0            999 V2000
    1.4196    0.3716    0.0000 C   0  0  0  0  0  0  0  0  0  0  0  0
    1.8330   -0.3424    0.0000 C   0  0  0  0  0  0  0  0  0  0  0  0
    0.6055    0.4592    0.0000 N   0  0  0  0  0  0  0  0  0  0  0  0
    1.4196   -1.0439    0.0000 N   0  0  0  0  0  0  0  0  0  0  0  0
    0.4426    1.2609    0.0000 C   0  0  0  0  0  0  0  0  0  0  0  0
    0.1796   -1.7536    0.0000 C   0  0  0  0  0  0  0  0  0  0  0  0
    2.6597   -0.3424    0.0000 C   0  0  0  0  0  0  0  0  0  0  0  0
    1.7578    1.1231    0.0000 C   0  0  0  0  0  0  0  0  0  0  0  0
    1.1441    1.6743    0.0000 S   0  0  0  0  0  0  0  0  0  0  0  0
   -0.5344   -1.3403    0.0000 C   0  0  0  0  0  0  0  0  0  0  0  0
    3.0688   -1.0564    0.0000 N   0  0  0  0  0  0  0  0  0  0  0  0
    0.5929   -1.0439    0.0000 O   0  0  0  0  0  0  0  0  0  0  0  0
    4.3089   -1.7704    0.0000 B   0  0  0  0  0  0  0  0  0  0  0  0
    3.8956   -1.0522    0.0000 C   0  0  0  0  0  0  0  0  0  0  0  0
   -1.2526   -1.7453    0.0000 O   0  5  0  0  0  0  0  0  0  0  0  0
    3.0688    0.3716    0.0000 O   0  0  0  0  0  0  0  0  0  0  0  0
   -0.5344   -0.5136    0.0000 O   0  0  0  0  0  0  0  0  0  0  0  0
   -0.3215    1.6116    0.0000 N   0  0  0  0  0  0  0  0  0  0  0  0
    5.1356   -1.7704    0.0000 O   0  0  0  0  0  0  0  0  0  0  0  0
    3.8998   -2.4718    0.0000 O   0  0  0  0  0  0  0  0  0  0  0  0
   -0.2380   -2.4718    0.0000 C   0  0  0  0  0  0  0  0  0  0  0  0
    0.8935   -2.1712    0.0000 C   0  0  0  0  0  0  0  0  0  0  0  0
  2  1  1  0  0  0  0
  3  1  1  0  0  0  0
  4  2  2  0  0  0  0
  5  3  2  0  0  0  0
  6 12  1  0  0  0  0
  7  2  1  0  0  0  0
  8  1  2  0  0  0  0
  9  8  1  0  0  0  0
 10  6  1  0  0  0  0
 11  7  1  0  0  0  0
 12  4  1  0  0  0  0
 13 14  1  0  0  0  0
 14 11  1  0  0  0  0
 15 10  1  0  0  0  0
 16  7  2  0  0  0  0
 17 10  2  0  0  0  0
 18  5  1  0  0  0  0
 19 13  1  0  0  0  0
 20 13  1  0  0  0  0
 21  6  1  0  0  0  0
 22  6  1  0  0  0  0
  5  9  1  0  0  0  0
M  CHG  1  15  -1
M  END
> <From>
www.bindingDB.org

> <BindingDB Reactant_set_id>
50998441

> <Ligand InChI>
InChI=1S/C10H15BN4O6S/c1-10(2,8(17)18)21-15-6(5-3-22-9(12)14-5)7(16)13-4-11(19)20/h3,19-20H,4H2,1-2H3,(H2,12,14)(H,13,16)(H,17,18)/p-1/b15-6+

> <Ligand InChI Key>
ZECCQELUYUPTSB-GIDUJCDVSA-M

> <BindingDB MonomerID>
50115618

> <BindingDB Ligand Name>
2-[(2-Amino-thiazol-4-yl)-(dihydroxyboranylmethyl-carbamoyl)-methyleneaminooxy]-2-methyl-propionic acid::CHEMBL324887

> <Target Name>
Beta-lactamase

> <Target Source Organism According to Curator or DataSource>
Escherichia coli

> <Ki (nM)>
 20

> <IC50 (nM)>


> <Kd (nM)>


> <EC50 (nM)>


> <kon (M-1-s-1)>


> <koff (s-1)>


> <pH>


> <Temp C>


> <Curation/DataSource>
ChEMBL

> <Article DOI>
10.1021/jm020002p

> <BindingDB Entry DOI>
10.7270/Q2CN737M

> <PMID>
12109906

> <PubChem AID>


> <Patent Number>


> <Authors>
Powers, RA; Shoichet, BK

> <Institution>
Northwestern University

> <Link to Ligand in BindingDB>
http://www.bindingdb.org/bind/chemsearch/marvin/MolStructure.jsp?monomerid=50115618

> <Link to Ligand-Target Pair in BindingDB>
http://www.bindingdb.org/jsp/dbsearch/PrimarySearch_ki.jsp?energyterm=kJ/mole&tag=pol&polymerid=4401&target=Beta-lactamase&column=ki&startPg=0&Increment=50&submit=Search

> <Link to Ligand-Target Pair in BindingDB>
http://www.bindingdb.org/jsp/dbsearch/PrimarySearch_ki.jsp?energyterm=kJ/mole&tag=r21&monomerid=50115618&enzyme=Beta-lactamase&column=ki&startPg=0&Increment=50&submit=Search

> <Ligand HET ID in PDB>


> <PDB ID(s) for Ligand-Target Complex>


> <PubChem CID of Ligand>
44339180

> <PubChem SID of Ligand>
104009507

> <ChEBI ID of Ligand>
29067

> <ChEMBL ID of Ligand>
CHEMBL324887

> <DrugBank ID of Ligand>


> <IUPHAR_GRAC ID of Ligand>


> <KEGG ID of Ligand>


> <ZINC ID of Ligand>


> <Number of Protein Chains in Target (bigger than 1 implies a multichain complex)>
1

> <BindingDB Target Chain Sequence>
MFKTTLCALLITASCSTFAAPQQINDIVHRTITPLIEQQKIPGMAVAVIYQGKPYYFTWGYADIAKKQPVTQQTLFELGSVSKTFTGVLGGDAIARGEIKLSDPTTKYWPELTAKQWNGITLLHLATYTAGGLPLQVPDEVKSSSDLLRFYQNWQPAWAPGTQRLYANSSIGLFGALAVKPSGLSFEQAMQTRVFQPLKLNHTWINVPPAEEKNYAWGYREGKAVHVSPGALDAEAYGVKSTIEDMARWVQSNLKPLDINEKTLQQGIQLAQSRYWQTGDMYQGLGWEMLDWPVNPDSIINGSDNKIALAARPVKAITPPTPAVRASWVHKTGATGGFGSYVAFIPEKELGIVMLANKNYPNPARVDAAWQILNALQ

> <PDB ID(s) of Target Chain>
1C3B,1FCO,1FSW,1FSY,1GA9,1IEL,1IEM,1KDS,1KDW,1KE0,1KE3,1KE4,1KVM,1L2S,1LL5,1LL9,1LLB,1MXO,1MY8,1XGI,1XGJ,2BLS,2HDQ,2HDR,2HDS,2HDU,2I72,2P9V,2PU2,2PU4,2R9W,2R9X,2RCX,3BLS,3BM6,3GQZ,3GR2,3GRJ,3GSG,3GTC,3GV9,3GVB,3O86,3O87,3O88,4E3I,4E3J,4E3K,4E3L,4E3M,4E3N,4E3O,4JXG,4JXS,4JXV,4JXW,4KG2,4KZ3,4KZ4,4KZ5,4KZ6,4KZ7,4KZ8,4KZ9,4KZA,4KZB,4LV0,4LV1,4LV2,4LV3,4OKP,4OLD,4OLG,6DPT,6DPX,6DPY,6DPZ,6T35,6T3D,6T5Y,6T7L,6TBW,6TPM,6WGQ,6YEN,6YEO,6YPD

> <UniProt (SwissProt) Recommended Name of Target Chain>
Beta-lactamase

> <UniProt (SwissProt) Entry Name of Target Chain>
AMPC_ECOLI

> <UniProt (SwissProt) Primary ID of Target Chain>
P00811

> <UniProt (SwissProt) Secondary ID(s) of Target Chain>
Q2M6F2

> <UniProt (SwissProt) Alternative ID(s) of Target Chain>


> <UniProt (TrEMBL) Submitted Name of Target Chain>


> <UniProt (TrEMBL) Entry Name of Target Chain>


> <UniProt (TrEMBL) Primary ID of Target Chain>


> <UniProt (TrEMBL) Secondary ID(s) of Target Chain>


> <UniProt (TrEMBL) Alternative ID(s) of Target Chain>


$$$$

  Mrv0541 01081602572D          

 22 23  0  0  0  0            999 V2000
    6.3938    3.3589    0.0000 C   0  0  0  0  0  0  0  0  0  0  0  0
    5.6793    2.9464    0.0000 C   0  0  0  0  0  0  0  0  0  0  0  0
    5.6793    2.1214    0.0000 C   0  0  0  0  0  0  0  0  0  0  0  0
    6.3938    1.7089    0.0000 C   0  0  0  0  0  0  0  0  0  0  0  0
    7.1082    2.1214    0.0000 C   0  0  0  0  0  0  0  0  0  0  0  0
    7.1082    2.9464    0.0000 C   0  0  0  0  0  0  0  0  0  0  0  0
    7.8227    1.7089    0.0000 C   0  0  0  0  0  0  0  0  0  0  0  0
    4.9648    1.7089    0.0000 C   0  0  1  0  0  0  0  0  0  0  0  0
    4.9648    0.8839    0.0000 B   0  0  0  0  0  0  0  0  0  0  0  0
    4.2503    2.1214    0.0000 N   0  0  0  0  0  0  0  0  0  0  0  0
    4.2503    0.4714    0.0000 O   0  0  0  0  0  0  0  0  0  0  0  0
    5.6793    0.4714    0.0000 O   0  0  0  0  0  0  0  0  0  0  0  0
    3.5359    1.7089    0.0000 C   0  0  0  0  0  0  0  0  0  0  0  0
    2.8214    2.1214    0.0000 C   0  0  0  0  0  0  0  0  0  0  0  0
    3.5359    0.8839    0.0000 O   0  0  0  0  0  0  0  0  0  0  0  0
    2.1069    1.7089    0.0000 C   0  0  0  0  0  0  0  0  0  0  0  0
    1.3532    2.0445    0.0000 S   0  0  0  0  0  0  0  0  0  0  0  0
    0.8012    1.4314    0.0000 C   0  0  0  0  0  0  0  0  0  0  0  0
    1.2137    0.7169    0.0000 C   0  0  0  0  0  0  0  0  0  0  0  0
    2.0207    0.8884    0.0000 C   0  0  0  0  0  0  0  0  0  0  0  0
    8.5372    2.1214    0.0000 O   0  0  0  0  0  0  0  0  0  0  0  0
    7.8227    0.8839    0.0000 O   0  0  0  0  0  0  0  0  0  0  0  0
  1  2  4  0  0  0  0
  2  3  4  0  0  0  0
  3  4  4  0  0  0  0
  4  5  4  0  0  0  0
  5  6  4  0  0  0  0
  1  6  4  0  0  0  0
  5  7  1  0  0  0  0
  8  3  1  0  0  0  0
  8  9  1  1  0  0  0
  8 10  1  0  0  0  0
  9 11  1  0  0  0  0
  9 12  1  0  0  0  0
 10 13  1  0  0  0  0
 13 14  1  0  0  0  0
 13 15  2  0  0  0  0
 14 16  1  0  0  0  0
 16 17  4  0  0  0  0
 16 20  4  0  0  0  0
 17 18  4  0  0  0  0
 18 19  4  0  0  0  0
 19 20  4  0  0  0  0
  7 21  2  0  0  0  0
  7 22  1  0  0  0  0
M  END
> <From>
www.bindingDB.org

> <BindingDB Reactant_set_id>
293317

> <Ligand InChI>
InChI=1S/C14H14BNO5S/c17-12(8-11-5-2-6-22-11)16-13(15(20)21)9-3-1-4-10(7-9)14(18)19/h1-7,13,20-21H,8H2,(H,16,17)(H,18,19)/t13-/m0/s1

> <Ligand InChI Key>
HQLQTGGLHBYZSA-ZDUSSCGKSA-N

> <BindingDB MonomerID>
152694

> <BindingDB Ligand Name>
SM23

> <Target Name>
Beta-lactamase [24-383]

> <Target Source Organism According to Curator or DataSource>


> <Ki (nM)>
 21.1

> <IC50 (nM)>


> <Kd (nM)>
 90

> <EC50 (nM)>


> <kon (M-1-s-1)>


> <koff (s-1)>


> <pH>
7.4

> <Temp C>
25.00

> <Curation/DataSource>
Curated from the literature by BindingDB

> <Article DOI>
10.1021/bi500887n

> <BindingDB Entry DOI>
10.7270/Q2GM8614

> <PMID>
25380506

> <PubChem AID>
aid1801063

> <Patent Number>


> <Authors>
Powers, RA; Swanson, HC; Taracila, MA; Florek, NW; Romagnoli, C; Caselli, E; Prati, F; Bonomo, RA; Wallar, BJ

> <Institution>
Grand Valley State University

> <Link to Ligand in BindingDB>
http://www.bindingdb.org/bind/chemsearch/marvin/MolStructure.jsp?monomerid=152694

> <Link to Ligand-Target Pair in BindingDB>
http://www.bindingdb.org/jsp/dbsearch/PrimarySearch_ki.jsp?energyterm=kJ/mole&tag=pol&polymerid=6995&target=Beta-lactamase+%5B24-383%5D&column=ki&startPg=0&Increment=50&submit=Search

> <Link to Ligand-Target Pair in BindingDB>
http://www.bindingdb.org/jsp/dbsearch/PrimarySearch_ki.jsp?energyterm=kJ/mole&tag=r21&monomerid=152694&enzyme=Beta-lactamase+%5B24-383%5D&column=ki&startPg=0&Increment=50&submit=Search

> <Ligand HET ID in PDB>
SM2

> <PDB ID(s) for Ligand-Target Complex>
1NXY,5W13,1PI5,1YM1,5CHJ,1MXO

> <PubChem CID of Ligand>
5289377

> <PubChem SID of Ligand>
252826944

> <ChEBI ID of Ligand>


> <ChEMBL ID of Ligand>


> <DrugBank ID of Ligand>
DB08551

> <IUPHAR_GRAC ID of Ligand>


> <KEGG ID of Ligand>


> <ZINC ID of Ligand>


> <Number of Protein Chains in Target (bigger than 1 implies a multichain complex)>
1

> <BindingDB Target Chain Sequence>
DNTPKDQEIKKLVDQNFKPLLEKYDVPGMAVGVIQNNKKYEMYYGLQSVQDKKAVNSNTIFELGSVSKLFTATAGGYAKNKGKISFDDTPGKYWKELKNTPIDQVNLLQLATYTSGNLALQFPDEVQTDQQVLTFFKDWKPKNPIGEYRQYSNPSIGLFGKVVALSMNKPFDQVLEKTIFPALGLKHSYVNVPKTQMQNYAFGYNQENQPIRVNPGPLDAPAYGVKSTLPDMLSFIHANLNPQKYPTDIQRAINETHQGRYQVNTMYQALGWEEFSYPATLQTLLDSNSEQIVMKPNKVTAISKEPSVKMYHKTGSTSGFGTYVVFIPKENIGLVMLTNKRIPNEERIKAAYVVLNAIKK

> <PDB ID(s) of Target Chain>
4U0T,4U0X,5W12,5W13,5W14,5WAC,5WAD,5WAE,5WAF,5WAG,6PWL,6PWM,6TZF,6TZG,6TZH,6TZI,6TZJ,6WIF,8FQM,8FQV,8FQW

> <UniProt (SwissProt) Recommended Name of Target Chain>


> <UniProt (SwissProt) Entry Name of Target Chain>


> <UniProt (SwissProt) Primary ID of Target Chain>


> <UniProt (SwissProt) Secondary ID(s) of Target Chain>


> <UniProt (SwissProt) Alternative ID(s) of Target Chain>


> <UniProt (TrEMBL) Submitted Name of Target Chain>
Beta-lactamase

> <UniProt (TrEMBL) Entry Name of Target Chain>
F0KJS2_ACICP

> <UniProt (TrEMBL) Primary ID of Target Chain>
F0KJS2

> <UniProt (TrEMBL) Secondary ID(s) of Target Chain>


> <UniProt (TrEMBL) Alternative ID(s) of Target Chain>


$$$$
18
  Mrv0541 11181423542D          

 12 13  0  0  0  0            999 V2000
   -1.7187    2.0750    0.0000 C   0  0  0  0  0  0  0  0  0  0  0  0
   -2.4332    1.6625    0.0000 C   0  0  0  0  0  0  0  0  0  0  0  0
   -2.4332    0.8375    0.0000 C   0  0  0  0  0  0  0  0  0  0  0  0
   -1.7187    0.4250    0.0000 C   0  0  0  0  0  0  0  0  0  0  0  0
   -1.0043    1.6625    0.0000 C   0  0  0  0  0  0  0  0  0  0  0  0
   -1.0043    0.8375    0.0000 C   0  0  0  0  0  0  0  0  0  0  0  0
   -0.2197    1.9175    0.0000 C   0  0  0  0  0  0  0  0  0  0  0  0
   -0.2197    0.5826    0.0000 S   0  0  0  0  0  0  0  0  0  0  0  0
    0.2652    1.2500    0.0000 C   0  0  0  0  0  0  0  0  0  0  0  0
    1.0902    1.2500    0.0000 B   0  0  0  0  0  0  0  0  0  0  0  0
    1.6736    1.8334    0.0000 O   0  0  0  0  0  0  0  0  0  0  0  0
    1.5027    0.5355    0.0000 O   0  0  0  0  0  0  0  0  0  0  0  0
  1  2  1  0  0  0  0
  1  5  2  0  0  0  0
  2  3  2  0  0  0  0
  3  4  1  0  0  0  0
  4  6  2  0  0  0  0
  7  5  1  0  0  0  0
  5  6  1  0  0  0  0
  6  8  1  0  0  0  0
  7  9  2  0  0  0  0
  8  9  1  0  0  0  0
  9 10  1  0  0  0  0
 10 12  1  0  0  0  0
 10 11  1  0  0  0  0
M  END
> <From>
www.bindingDB.org

> <BindingDB Reactant_set_id>
50209035

> <Ligand InChI>
InChI=1S/C8H7BO2S/c10-9(11)8-5-6-3-1-2-4-7(6)12-8/h1-5,10-11H

> <Ligand InChI Key>
YNCYPMUJDDXIRH-UHFFFAOYSA-N

> <BindingDB MonomerID>
26139

> <BindingDB Ligand Name>
1-benzothiophen-2-ylboranediol::1-benzothiophen-2-ylboronic acid, 18::CHEMBL34964::Phenylboronic acid, 11

> <Target Name>
Beta-lactamase

> <Target Source Organism According to Curator or DataSource>
Escherichia coli

> <Ki (nM)>
 27

> <IC50 (nM)>


> <Kd (nM)>


> <EC50 (nM)>


> <kon (M-1-s-1)>


> <koff (s-1)>


> <pH>


> <Temp C>


> <Curation/DataSource>
ChEMBL

> <Article DOI>
10.1021/jm020002p

> <BindingDB Entry DOI>
10.7270/Q2CN737M

> <PMID>
12109906

> <PubChem AID>


> <Patent Number>


> <Authors>
Powers, RA; Shoichet, BK

> <Institution>
Northwestern University

> <Link to Ligand in BindingDB>
http://www.bindingdb.org/bind/chemsearch/marvin/MolStructure.jsp?monomerid=26139

> <Link to Ligand-Target Pair in BindingDB>
http://www.bindingdb.org/jsp/dbsearch/PrimarySearch_ki.jsp?energyterm=kJ/mole&tag=pol&polymerid=4401&target=Beta-lactamase&column=ki&startPg=0&Increment=50&submit=Search

> <Link to Ligand-Target Pair in BindingDB>
http://www.bindingdb.org/jsp/dbsearch/PrimarySearch_ki.jsp?energyterm=kJ/mole&tag=r21&monomerid=26139&enzyme=Beta-lactamase&column=ki&startPg=0&Increment=50&submit=Search

> <Ligand HET ID in PDB>
BZB

> <PDB ID(s) for Ligand-Target Complex>
3FKV,4BD0,4BD1,3IXG,3IXB,1C3B,4C3Q

> <PubChem CID of Ligand>
2359

> <PubChem SID of Ligand>
56464576

> <ChEBI ID of Ligand>


> <ChEMBL ID of Ligand>
CHEMBL34964

> <DrugBank ID of Ligand>
DB04360

> <IUPHAR_GRAC ID of Ligand>


> <KEGG ID of Ligand>


> <ZINC ID of Ligand>


> <Number of Protein Chains in Target (bigger than 1 implies a multichain complex)>
1

> <BindingDB Target Chain Sequence>
MFKTTLCALLITASCSTFAAPQQINDIVHRTITPLIEQQKIPGMAVAVIYQGKPYYFTWGYADIAKKQPVTQQTLFELGSVSKTFTGVLGGDAIARGEIKLSDPTTKYWPELTAKQWNGITLLHLATYTAGGLPLQVPDEVKSSSDLLRFYQNWQPAWAPGTQRLYANSSIGLFGALAVKPSGLSFEQAMQTRVFQPLKLNHTWINVPPAEEKNYAWGYREGKAVHVSPGALDAEAYGVKSTIEDMARWVQSNLKPLDINEKTLQQGIQLAQSRYWQTGDMYQGLGWEMLDWPVNPDSIINGSDNKIALAARPVKAITPPTPAVRASWVHKTGATGGFGSYVAFIPEKELGIVMLANKNYPNPARVDAAWQILNALQ

> <PDB ID(s) of Target Chain>
1C3B,1FCO,1FSW,1FSY,1GA9,1IEL,1IEM,1KDS,1KDW,1KE0,1KE3,1KE4,1KVM,1L2S,1LL5,1LL9,1LLB,1MXO,1MY8,1XGI,1XGJ,2BLS,2HDQ,2HDR,2HDS,2HDU,2I72,2P9V,2PU2,2PU4,2R9W,2R9X,2RCX,3BLS,3BM6,3GQZ,3GR2,3GRJ,3GSG,3GTC,3GV9,3GVB,3O86,3O87,3O88,4E3I,4E3J,4E3K,4E3L,4E3M,4E3N,4E3O,4JXG,4JXS,4JXV,4JXW,4KG2,4KZ3,4KZ4,4KZ5,4KZ6,4KZ7,4KZ8,4KZ9,4KZA,4KZB,4LV0,4LV1,4LV2,4LV3,4OKP,4OLD,4OLG,6DPT,6DPX,6DPY,6DPZ,6T35,6T3D,6T5Y,6T7L,6TBW,6TPM,6WGQ,6YEN,6YEO,6YPD

> <UniProt (SwissProt) Recommended Name of Target Chain>
Beta-lactamase

> <UniProt (SwissProt) Entry Name of Target Chain>
AMPC_ECOLI

> <UniProt (SwissProt) Primary ID of Target Chain>
P00811

> <UniProt (SwissProt) Secondary ID(s) of Target Chain>
Q2M6F2

> <UniProt (SwissProt) Alternative ID(s) of Target Chain>


> <UniProt (TrEMBL) Submitted Name of Target Chain>


> <UniProt (TrEMBL) Entry Name of Target Chain>


> <UniProt (TrEMBL) Primary ID of Target Chain>


> <UniProt (TrEMBL) Secondary ID(s) of Target Chain>


> <UniProt (TrEMBL) Alternative ID(s) of Target Chain>


$$$$
18
  Mrv0541 11181423542D          

 12 13  0  0  0  0            999 V2000
   -1.7187    2.0750    0.0000 C   0  0  0  0  0  0  0  0  0  0  0  0
   -2.4332    1.6625    0.0000 C   0  0  0  0  0  0  0  0  0  0  0  0
   -2.4332    0.8375    0.0000 C   0  0  0  0  0  0  0  0  0  0  0  0
   -1.7187    0.4250    0.0000 C   0  0  0  0  0  0  0  0  0  0  0  0
   -1.0043    1.6625    0.0000 C   0  0  0  0  0  0  0  0  0  0  0  0
   -1.0043    0.8375    0.0000 C   0  0  0  0  0  0  0  0  0  0  0  0
   -0.2197    1.9175    0.0000 C   0  0  0  0  0  0  0  0  0  0  0  0
   -0.2197    0.5826    0.0000 S   0  0  0  0  0  0  0  0  0  0  0  0
    0.2652    1.2500    0.0000 C   0  0  0  0  0  0  0  0  0  0  0  0
    1.0902    1.2500    0.0000 B   0  0  0  0  0  0  0  0  0  0  0  0
    1.6736    1.8334    0.0000 O   0  0  0  0  0  0  0  0  0  0  0  0
    1.5027    0.5355    0.0000 O   0  0  0  0  0  0  0  0  0  0  0  0
  1  2  1  0  0  0  0
  1  5  2  0  0  0  0
  2  3  2  0  0  0  0
  3  4  1  0  0  0  0
  4  6  2  0  0  0  0
  7  5  1  0  0  0  0
  5  6  1  0  0  0  0
  6  8  1  0  0  0  0
  7  9  2  0  0  0  0
  8  9  1  0  0  0  0
  9 10  1  0  0  0  0
 10 12  1  0  0  0  0
 10 11  1  0  0  0  0
M  END
> <From>
www.bindingDB.org

> <BindingDB Reactant_set_id>
50117306

> <Ligand InChI>
InChI=1S/C8H7BO2S/c10-9(11)8-5-6-3-1-2-4-7(6)12-8/h1-5,10-11H

> <Ligand InChI Key>
YNCYPMUJDDXIRH-UHFFFAOYSA-N

> <BindingDB MonomerID>
26139

> <BindingDB Ligand Name>
1-benzothiophen-2-ylboranediol::1-benzothiophen-2-ylboronic acid, 18::CHEMBL34964::Phenylboronic acid, 11

> <Target Name>
Beta-lactamase

> <Target Source Organism According to Curator or DataSource>
Escherichia coli

> <Ki (nM)>
 27

> <IC50 (nM)>


> <Kd (nM)>


> <EC50 (nM)>


> <kon (M-1-s-1)>


> <koff (s-1)>


> <pH>


> <Temp C>


> <Curation/DataSource>
ChEMBL

> <Article DOI>
10.1021/jm980343w

> <BindingDB Entry DOI>
10.7270/Q22N51FX

> <PMID>
9804697

> <PubChem AID>


> <Patent Number>


> <Authors>
Weston, GS; Blazquez, J; Baquero, F; Shoichet, BK

> <Institution>
Northwestern University Medical School

> <Link to Ligand in BindingDB>
http://www.bindingdb.org/bind/chemsearch/marvin/MolStructure.jsp?monomerid=26139

> <Link to Ligand-Target Pair in BindingDB>
http://www.bindingdb.org/jsp/dbsearch/PrimarySearch_ki.jsp?energyterm=kJ/mole&tag=pol&polymerid=4401&target=Beta-lactamase&column=ki&startPg=0&Increment=50&submit=Search

> <Link to Ligand-Target Pair in BindingDB>
http://www.bindingdb.org/jsp/dbsearch/PrimarySearch_ki.jsp?energyterm=kJ/mole&tag=r21&monomerid=26139&enzyme=Beta-lactamase&column=ki&startPg=0&Increment=50&submit=Search

> <Ligand HET ID in PDB>
BZB

> <PDB ID(s) for Ligand-Target Complex>
3FKV,4BD0,4BD1,3IXG,3IXB,1C3B,4C3Q

> <PubChem CID of Ligand>
2359

> <PubChem SID of Ligand>
56464576

> <ChEBI ID of Ligand>


> <ChEMBL ID of Ligand>
CHEMBL34964

> <DrugBank ID of Ligand>
DB04360

> <IUPHAR_GRAC ID of Ligand>


> <KEGG ID of Ligand>


> <ZINC ID of Ligand>


> <Number of Protein Chains in Target (bigger than 1 implies a multichain complex)>
1

> <BindingDB Target Chain Sequence>
MFKTTLCALLITASCSTFAAPQQINDIVHRTITPLIEQQKIPGMAVAVIYQGKPYYFTWGYADIAKKQPVTQQTLFELGSVSKTFTGVLGGDAIARGEIKLSDPTTKYWPELTAKQWNGITLLHLATYTAGGLPLQVPDEVKSSSDLLRFYQNWQPAWAPGTQRLYANSSIGLFGALAVKPSGLSFEQAMQTRVFQPLKLNHTWINVPPAEEKNYAWGYREGKAVHVSPGALDAEAYGVKSTIEDMARWVQSNLKPLDINEKTLQQGIQLAQSRYWQTGDMYQGLGWEMLDWPVNPDSIINGSDNKIALAARPVKAITPPTPAVRASWVHKTGATGGFGSYVAFIPEKELGIVMLANKNYPNPARVDAAWQILNALQ

> <PDB ID(s) of Target Chain>
1C3B,1FCO,1FSW,1FSY,1GA9,1IEL,1IEM,1KDS,1KDW,1KE0,1KE3,1KE4,1KVM,1L2S,1LL5,1LL9,1LLB,1MXO,1MY8,1XGI,1XGJ,2BLS,2HDQ,2HDR,2HDS,2HDU,2I72,2P9V,2PU2,2PU4,2R9W,2R9X,2RCX,3BLS,3BM6,3GQZ,3GR2,3GRJ,3GSG,3GTC,3GV9,3GVB,3O86,3O87,3O88,4E3I,4E3J,4E3K,4E3L,4E3M,4E3N,4E3O,4JXG,4JXS,4JXV,4JXW,4KG2,4KZ3,4KZ4,4KZ5,4KZ6,4KZ7,4KZ8,4KZ9,4KZA,4KZB,4LV0,4LV1,4LV2,4LV3,4OKP,4OLD,4OLG,6DPT,6DPX,6DPY,6DPZ,6T35,6T3D,6T5Y,6T7L,6TBW,6TPM,6WGQ,6YEN,6YEO,6YPD

> <UniProt (SwissProt) Recommended Name of Target Chain>
Beta-lactamase

> <UniProt (SwissProt) Entry Name of Target Chain>
AMPC_ECOLI

> <UniProt (SwissProt) Primary ID of Target Chain>
P00811

> <UniProt (SwissProt) Secondary ID(s) of Target Chain>
Q2M6F2

> <UniProt (SwissProt) Alternative ID(s) of Target Chain>


> <UniProt (TrEMBL) Submitted Name of Target Chain>


> <UniProt (TrEMBL) Entry Name of Target Chain>


> <UniProt (TrEMBL) Primary ID of Target Chain>


> <UniProt (TrEMBL) Secondary ID(s) of Target Chain>


> <UniProt (TrEMBL) Alternative ID(s) of Target Chain>


$$$$
18
  Mrv0541 11181423542D          

 12 13  0  0  0  0            999 V2000
   -1.7187    2.0750    0.0000 C   0  0  0  0  0  0  0  0  0  0  0  0
   -2.4332    1.6625    0.0000 C   0  0  0  0  0  0  0  0  0  0  0  0
   -2.4332    0.8375    0.0000 C   0  0  0  0  0  0  0  0  0  0  0  0
   -1.7187    0.4250    0.0000 C   0  0  0  0  0  0  0  0  0  0  0  0
   -1.0043    1.6625    0.0000 C   0  0  0  0  0  0  0  0  0  0  0  0
   -1.0043    0.8375    0.0000 C   0  0  0  0  0  0  0  0  0  0  0  0
   -0.2197    1.9175    0.0000 C   0  0  0  0  0  0  0  0  0  0  0  0
   -0.2197    0.5826    0.0000 S   0  0  0  0  0  0  0  0  0  0  0  0
    0.2652    1.2500    0.0000 C   0  0  0  0  0  0  0  0  0  0  0  0
    1.0902    1.2500    0.0000 B   0  0  0  0  0  0  0  0  0  0  0  0
    1.6736    1.8334    0.0000 O   0  0  0  0  0  0  0  0  0  0  0  0
    1.5027    0.5355    0.0000 O   0  0  0  0  0  0  0  0  0  0  0  0
  1  2  1  0  0  0  0
  1  5  2  0  0  0  0
  2  3  2  0  0  0  0
  3  4  1  0  0  0  0
  4  6  2  0  0  0  0
  7  5  1  0  0  0  0
  5  6  1  0  0  0  0
  6  8  1  0  0  0  0
  7  9  2  0  0  0  0
  8  9  1  0  0  0  0
  9 10  1  0  0  0  0
 10 12  1  0  0  0  0
 10 11  1  0  0  0  0
M  END
> <From>
www.bindingDB.org

> <BindingDB Reactant_set_id>
50404422

> <Ligand InChI>
InChI=1S/C8H7BO2S/c10-9(11)8-5-6-3-1-2-4-7(6)12-8/h1-5,10-11H

> <Ligand InChI Key>
YNCYPMUJDDXIRH-UHFFFAOYSA-N

> <BindingDB MonomerID>
26139

> <BindingDB Ligand Name>
1-benzothiophen-2-ylboranediol::1-benzothiophen-2-ylboronic acid, 18::CHEMBL34964::Phenylboronic acid, 11

> <Target Name>
Beta-lactamase TEM

> <Target Source Organism According to Curator or DataSource>


> <Ki (nM)>
 27

> <IC50 (nM)>


> <Kd (nM)>


> <EC50 (nM)>


> <kon (M-1-s-1)>


> <koff (s-1)>


> <pH>


> <Temp C>


> <Curation/DataSource>
ChEMBL

> <Article DOI>
10.1021/jm070643q

> <BindingDB Entry DOI>
10.7270/Q21N80W5

> <PMID>
17956081

> <PubChem AID>


> <Patent Number>


> <Authors>
Venturelli, A; Tondi, D; Cancian, L; Morandi, F; Cannazza, G; Segatore, B; Prati, F; Amicosante, G; Shoichet, BK; Costi, MP

> <Institution>
Universit&#224; degli Studi di Modena e Reggio Emilia

> <Link to Ligand in BindingDB>
http://www.bindingdb.org/bind/chemsearch/marvin/MolStructure.jsp?monomerid=26139

> <Link to Ligand-Target Pair in BindingDB>
http://www.bindingdb.org/jsp/dbsearch/PrimarySearch_ki.jsp?energyterm=kJ/mole&tag=pol&polymerid=7704&target=Beta-lactamase+TEM&column=ki&startPg=0&Increment=50&submit=Search

> <Link to Ligand-Target Pair in BindingDB>
http://www.bindingdb.org/jsp/dbsearch/PrimarySearch_ki.jsp?energyterm=kJ/mole&tag=r21&monomerid=26139&enzyme=Beta-lactamase+TEM&column=ki&startPg=0&Increment=50&submit=Search

> <Ligand HET ID in PDB>
BZB

> <PDB ID(s) for Ligand-Target Complex>
3FKV,4BD0,4BD1,3IXG,3IXB,1C3B,4C3Q

> <PubChem CID of Ligand>
2359

> <PubChem SID of Ligand>
56464576

> <ChEBI ID of Ligand>


> <ChEMBL ID of Ligand>
CHEMBL34964

> <DrugBank ID of Ligand>
DB04360

> <IUPHAR_GRAC ID of Ligand>


> <KEGG ID of Ligand>


> <ZINC ID of Ligand>


> <Number of Protein Chains in Target (bigger than 1 implies a multichain complex)>
1

> <BindingDB Target Chain Sequence>
MSIQHFRVALIPFFAAFCLPVFAHPETLVKVKDAEDQLGARVGYIELDLNSGKILESFRPEERFPMMSTFKVLLCGAVLSRVDAGQEQLGRRIHYSQNDLVEYSPVTEKHLTDGMTVRELCSAAITMSDNTAANLLLTTIGGPKELTAFLHNMGDHVTRLDRWEPELNEAIPNDERDTTMPAAMATTLRKLLTGELLTLASRQQLIDWMEADKVAGPLLRSALPAGWFIADKSGAGERGSRGIIAALGPDGKPSRIVVIYTTGSQATMDERNRQIAEIGASLIKHW

> <PDB ID(s) of Target Chain>
1ERM,1ERO,1ERQ,1ESU,1FQG,1JTD,1JVJ,1JWP,1JWV,1LHY,1LI9,1M40,1NXY,1NY0,1NYM,1NYY,1PZO,1PZP,1S0W,1XPB,1YT4,2V1Z,2V20,3CMZ,3DTM,3JYI,3P98,4DXB,4DXC,4GKU,4ZJ2,5AQ8,5HVI,5HW1,5HW5,5NPO,6B2N,7QLP,7QNK,7U6Q,8DE0

> <UniProt (SwissProt) Recommended Name of Target Chain>
Beta-lactamase TEM

> <UniProt (SwissProt) Entry Name of Target Chain>
BLAT_ECOLX

> <UniProt (SwissProt) Primary ID of Target Chain>
P62593

> <UniProt (SwissProt) Secondary ID(s) of Target Chain>
P00810 Q47313

> <UniProt (SwissProt) Alternative ID(s) of Target Chain>


> <UniProt (TrEMBL) Submitted Name of Target Chain>


> <UniProt (TrEMBL) Entry Name of Target Chain>


> <UniProt (TrEMBL) Primary ID of Target Chain>


> <UniProt (TrEMBL) Secondary ID(s) of Target Chain>


> <UniProt (TrEMBL) Alternative ID(s) of Target Chain>


$$$$

  Mrv0541 11221409162D          

 30 32  0  0  0  0            999 V2000
    9.6243   -6.8346    0.0000 C   0  0  0  0  0  0  0  0  0  0  0  0
    9.6231   -7.6540    0.0000 C   0  0  0  0  0  0  0  0  0  0  0  0
   10.3388   -8.0649    0.0000 C   0  0  0  0  0  0  0  0  0  0  0  0
   10.3370   -6.4238    0.0000 C   0  0  0  0  0  0  0  0  0  0  0  0
   11.0449   -6.8310    0.0000 C   0  0  0  0  0  0  0  0  0  0  0  0
   11.0452   -7.6541    0.0000 C   0  0  0  0  0  0  0  0  0  0  0  0
   11.8278   -7.9053    0.0000 S   0  0  0  0  0  0  0  0  0  0  0  0
   12.3056   -7.2484    0.0000 C   0  0  0  0  0  0  0  0  0  0  0  0
   11.8274   -6.5794    0.0000 C   0  0  0  0  0  0  0  0  0  0  0  0
   13.1267   -7.2522    0.0000 B   0  0  0  0  0  0  0  0  0  0  0  0
   13.5375   -7.9590    0.0000 O   0  0  0  0  0  0  0  0  0  0  0  0
   13.5370   -6.5368    0.0000 O   0  0  0  0  0  0  0  0  0  0  0  0
    8.9048   -6.4200    0.0000 C   0  0  0  0  0  0  0  0  0  0  0  0
    8.1954   -6.8348    0.0000 N   0  0  0  0  0  0  0  0  0  0  0  0
    7.4801   -6.4285    0.0000 C   0  0  0  0  0  0  0  0  0  0  0  0
    7.4769   -5.6107    0.0000 C   0  0  0  0  0  0  0  0  0  0  0  0
    6.7664   -5.2004    0.0000 C   0  0  0  0  0  0  0  0  0  0  0  0
    6.0420   -5.6154    0.0000 C   0  0  0  0  0  0  0  0  0  0  0  0
    6.0490   -6.4407    0.0000 C   0  0  0  0  0  0  0  0  0  0  0  0
    6.7682   -6.8474    0.0000 C   0  0  0  0  0  0  0  0  0  0  0  0
    5.3094   -5.2142    0.0000 C   0  0  0  0  0  0  0  0  0  0  0  0
    4.5786   -4.8108    0.0000 O   0  0  0  0  0  0  0  0  0  0  0  0
    4.9080   -5.9466    0.0000 C   0  0  0  0  0  0  0  0  0  0  0  0
    5.7138   -4.4835    0.0000 C   0  0  0  0  0  0  0  0  0  0  0  0
    6.1131   -3.7532    0.0000 F   0  0  0  0  0  0  0  0  0  0  0  0
    6.4428   -4.8877    0.0000 F   0  0  0  0  0  0  0  0  0  0  0  0
    4.9814   -4.0823    0.0000 F   0  0  0  0  0  0  0  0  0  0  0  0
    4.5039   -6.6730    0.0000 F   0  0  0  0  0  0  0  0  0  0  0  0
    5.6381   -6.3477    0.0000 F   0  0  0  0  0  0  0  0  0  0  0  0
    4.1770   -5.5427    0.0000 F   0  0  0  0  0  0  0  0  0  0  0  0
  1  2  2  0  0  0  0
 14 15  1  0  0  0  0
  5  4  2  0  0  0  0
 15 16  2  0  0  0  0
  6  7  1  0  0  0  0
 16 17  1  0  0  0  0
  7  8  1  0  0  0  0
 17 18  2  0  0  0  0
  8  9  2  0  0  0  0
 18 19  1  0  0  0  0
  9  5  1  0  0  0  0
 19 20  2  0  0  0  0
 20 15  1  0  0  0  0
  4  1  1  0  0  0  0
 18 21  1  0  0  0  0
  8 10  1  0  0  0  0
 21 22  1  0  0  0  0
  5  6  1  0  0  0  0
 21 23  1  0  0  0  0
 10 11  1  0  0  0  0
 21 24  1  0  0  0  0
 24 25  1  0  0  0  0
 10 12  1  0  0  0  0
 24 26  1  0  0  0  0
  2  3  1  0  0  0  0
 24 27  1  0  0  0  0
  1 13  1  0  0  0  0
 23 28  1  0  0  0  0
  3  6  2  0  0  0  0
 23 29  1  0  0  0  0
 13 14  1  0  0  0  0
 23 30  1  0  0  0  0
M  END
> <From>
www.bindingDB.org

> <BindingDB Reactant_set_id>
50404429

> <Ligand InChI>
InChI=1S/C18H14BF6NO3S/c20-17(21,22)16(27,18(23,24)25)12-2-4-13(5-3-12)26-9-10-1-6-14-11(7-10)8-15(30-14)19(28)29/h1-8,26-29H,9H2

> <Ligand InChI Key>
AGZMSTRZJHCCDI-UHFFFAOYSA-N

> <BindingDB MonomerID>
50225381

> <BindingDB Ligand Name>
CHEMBL235293::pinacol5-{[4-(1-hydroxy-2,2,2-trifluoro-1-trifluoromethylethyl)-phenylamino]methyl}benzo[b]thiophen-2-ylboronate

> <Target Name>
Beta-lactamase TEM

> <Target Source Organism According to Curator or DataSource>


> <Ki (nM)>
 28

> <IC50 (nM)>


> <Kd (nM)>


> <EC50 (nM)>


> <kon (M-1-s-1)>


> <koff (s-1)>


> <pH>


> <Temp C>


> <Curation/DataSource>
ChEMBL

> <Article DOI>
10.1021/jm070643q

> <BindingDB Entry DOI>
10.7270/Q21N80W5

> <PMID>
17956081

> <PubChem AID>


> <Patent Number>


> <Authors>
Venturelli, A; Tondi, D; Cancian, L; Morandi, F; Cannazza, G; Segatore, B; Prati, F; Amicosante, G; Shoichet, BK; Costi, MP

> <Institution>
Universit&#224; degli Studi di Modena e Reggio Emilia

> <Link to Ligand in BindingDB>
http://www.bindingdb.org/bind/chemsearch/marvin/MolStructure.jsp?monomerid=50225381

> <Link to Ligand-Target Pair in BindingDB>
http://www.bindingdb.org/jsp/dbsearch/PrimarySearch_ki.jsp?energyterm=kJ/mole&tag=pol&polymerid=7704&target=Beta-lactamase+TEM&column=ki&startPg=0&Increment=50&submit=Search

> <Link to Ligand-Target Pair in BindingDB>
http://www.bindingdb.org/jsp/dbsearch/PrimarySearch_ki.jsp?energyterm=kJ/mole&tag=r21&monomerid=50225381&enzyme=Beta-lactamase+TEM&column=ki&startPg=0&Increment=50&submit=Search

> <Ligand HET ID in PDB>


> <PDB ID(s) for Ligand-Target Complex>


> <PubChem CID of Ligand>
23655481

> <PubChem SID of Ligand>
104096687

> <ChEBI ID of Ligand>


> <ChEMBL ID of Ligand>
CHEMBL235293

> <DrugBank ID of Ligand>


> <IUPHAR_GRAC ID of Ligand>


> <KEGG ID of Ligand>


> <ZINC ID of Ligand>


> <Number of Protein Chains in Target (bigger than 1 implies a multichain complex)>
1

> <BindingDB Target Chain Sequence>
MSIQHFRVALIPFFAAFCLPVFAHPETLVKVKDAEDQLGARVGYIELDLNSGKILESFRPEERFPMMSTFKVLLCGAVLSRVDAGQEQLGRRIHYSQNDLVEYSPVTEKHLTDGMTVRELCSAAITMSDNTAANLLLTTIGGPKELTAFLHNMGDHVTRLDRWEPELNEAIPNDERDTTMPAAMATTLRKLLTGELLTLASRQQLIDWMEADKVAGPLLRSALPAGWFIADKSGAGERGSRGIIAALGPDGKPSRIVVIYTTGSQATMDERNRQIAEIGASLIKHW

> <PDB ID(s) of Target Chain>
1ERM,1ERO,1ERQ,1ESU,1FQG,1JTD,1JVJ,1JWP,1JWV,1LHY,1LI9,1M40,1NXY,1NY0,1NYM,1NYY,1PZO,1PZP,1S0W,1XPB,1YT4,2V1Z,2V20,3CMZ,3DTM,3JYI,3P98,4DXB,4DXC,4GKU,4ZJ2,5AQ8,5HVI,5HW1,5HW5,5NPO,6B2N,7QLP,7QNK,7U6Q,8DE0

> <UniProt (SwissProt) Recommended Name of Target Chain>
Beta-lactamase TEM

> <UniProt (SwissProt) Entry Name of Target Chain>
BLAT_ECOLX

> <UniProt (SwissProt) Primary ID of Target Chain>
P62593

> <UniProt (SwissProt) Secondary ID(s) of Target Chain>
P00810 Q47313

> <UniProt (SwissProt) Alternative ID(s) of Target Chain>


> <UniProt (TrEMBL) Submitted Name of Target Chain>


> <UniProt (TrEMBL) Entry Name of Target Chain>


> <UniProt (TrEMBL) Primary ID of Target Chain>


> <UniProt (TrEMBL) Secondary ID(s) of Target Chain>


> <UniProt (TrEMBL) Alternative ID(s) of Target Chain>


$$$$

  Mrv0541 11221409162D          

 18 19  0  0  0  0            999 V2000
   -1.8485   -5.4998    0.0000 C   0  0  0  0  0  0  0  0  0  0  0  0
   -1.8497   -6.3217    0.0000 C   0  0  0  0  0  0  0  0  0  0  0  0
   -1.1318   -6.7340    0.0000 C   0  0  0  0  0  0  0  0  0  0  0  0
   -1.1336   -5.0876    0.0000 C   0  0  0  0  0  0  0  0  0  0  0  0
   -0.4235   -5.4962    0.0000 C   0  0  0  0  0  0  0  0  0  0  0  0
   -0.4232   -6.3217    0.0000 C   0  0  0  0  0  0  0  0  0  0  0  0
    0.3618   -6.5738    0.0000 S   0  0  0  0  0  0  0  0  0  0  0  0
    0.8411   -5.9148    0.0000 C   0  0  0  0  0  0  0  0  0  0  0  0
    0.3613   -5.2437    0.0000 C   0  0  0  0  0  0  0  0  0  0  0  0
    1.6648   -5.9186    0.0000 B   0  0  0  0  0  0  0  0  0  0  0  0
    2.0769   -6.6277    0.0000 O   0  0  0  0  0  0  0  0  0  0  0  0
    2.0764   -5.2011    0.0000 O   0  0  0  0  0  0  0  0  0  0  0  0
   -2.5703   -5.0839    0.0000 C   0  0  0  0  0  0  0  0  0  0  0  0
   -3.2819   -5.5000    0.0000 N   0  0  0  0  0  0  0  0  0  0  0  0
   -3.9996   -5.0924    0.0000 C   0  0  0  0  0  0  0  0  0  0  0  0
   -4.7168   -5.5127    0.0000 C   0  0  0  0  0  0  0  0  0  0  0  0
   -4.7092   -6.3415    0.0000 O   0  0  0  0  0  0  0  0  0  0  0  0
   -5.4334   -5.1082    0.0000 O   0  0  0  0  0  0  0  0  0  0  0  0
  8  9  2  0  0  0  0
  9  5  1  0  0  0  0
  4  1  1  0  0  0  0
  8 10  1  0  0  0  0
  5  6  1  0  0  0  0
 10 11  1  0  0  0  0
 10 12  1  0  0  0  0
  2  3  1  0  0  0  0
  1 13  1  0  0  0  0
  3  6  2  0  0  0  0
 13 14  1  0  0  0  0
  1  2  2  0  0  0  0
 14 15  1  0  0  0  0
  5  4  2  0  0  0  0
 15 16  1  0  0  0  0
  6  7  1  0  0  0  0
 16 17  1  0  0  0  0
  7  8  1  0  0  0  0
 16 18  2  0  0  0  0
M  END
> <From>
www.bindingDB.org

> <BindingDB Reactant_set_id>
50404443

> <Ligand InChI>
InChI=1S/C11H12BNO4S/c14-11(15)6-13-5-7-1-2-9-8(3-7)4-10(18-9)12(16)17/h1-4,13,16-17H,5-6H2,(H,14,15)

> <Ligand InChI Key>
VRCPBICEVAIMRL-UHFFFAOYSA-N

> <BindingDB MonomerID>
50225393

> <BindingDB Ligand Name>
CHEMBL235526::pinacol 5-[(carboxymethylamino)methyl]benzo[b]thiophen-2-ylboronate

> <Target Name>
Beta-lactamase TEM

> <Target Source Organism According to Curator or DataSource>


> <Ki (nM)>
 28

> <IC50 (nM)>


> <Kd (nM)>


> <EC50 (nM)>


> <kon (M-1-s-1)>


> <koff (s-1)>


> <pH>


> <Temp C>


> <Curation/DataSource>
ChEMBL

> <Article DOI>
10.1021/jm070643q

> <BindingDB Entry DOI>
10.7270/Q21N80W5

> <PMID>
17956081

> <PubChem AID>


> <Patent Number>


> <Authors>
Venturelli, A; Tondi, D; Cancian, L; Morandi, F; Cannazza, G; Segatore, B; Prati, F; Amicosante, G; Shoichet, BK; Costi, MP

> <Institution>
Universit&#224; degli Studi di Modena e Reggio Emilia

> <Link to Ligand in BindingDB>
http://www.bindingdb.org/bind/chemsearch/marvin/MolStructure.jsp?monomerid=50225393

> <Link to Ligand-Target Pair in BindingDB>
http://www.bindingdb.org/jsp/dbsearch/PrimarySearch_ki.jsp?energyterm=kJ/mole&tag=pol&polymerid=7704&target=Beta-lactamase+TEM&column=ki&startPg=0&Increment=50&submit=Search

> <Link to Ligand-Target Pair in BindingDB>
http://www.bindingdb.org/jsp/dbsearch/PrimarySearch_ki.jsp?energyterm=kJ/mole&tag=r21&monomerid=50225393&enzyme=Beta-lactamase+TEM&column=ki&startPg=0&Increment=50&submit=Search

> <Ligand HET ID in PDB>


> <PDB ID(s) for Ligand-Target Complex>


> <PubChem CID of Ligand>
23655689

> <PubChem SID of Ligand>
104096699

> <ChEBI ID of Ligand>


> <ChEMBL ID of Ligand>
CHEMBL235526

> <DrugBank ID of Ligand>


> <IUPHAR_GRAC ID of Ligand>


> <KEGG ID of Ligand>


> <ZINC ID of Ligand>


> <Number of Protein Chains in Target (bigger than 1 implies a multichain complex)>
1

> <BindingDB Target Chain Sequence>
MSIQHFRVALIPFFAAFCLPVFAHPETLVKVKDAEDQLGARVGYIELDLNSGKILESFRPEERFPMMSTFKVLLCGAVLSRVDAGQEQLGRRIHYSQNDLVEYSPVTEKHLTDGMTVRELCSAAITMSDNTAANLLLTTIGGPKELTAFLHNMGDHVTRLDRWEPELNEAIPNDERDTTMPAAMATTLRKLLTGELLTLASRQQLIDWMEADKVAGPLLRSALPAGWFIADKSGAGERGSRGIIAALGPDGKPSRIVVIYTTGSQATMDERNRQIAEIGASLIKHW

> <PDB ID(s) of Target Chain>
1ERM,1ERO,1ERQ,1ESU,1FQG,1JTD,1JVJ,1JWP,1JWV,1LHY,1LI9,1M40,1NXY,1NY0,1NYM,1NYY,1PZO,1PZP,1S0W,1XPB,1YT4,2V1Z,2V20,3CMZ,3DTM,3JYI,3P98,4DXB,4DXC,4GKU,4ZJ2,5AQ8,5HVI,5HW1,5HW5,5NPO,6B2N,7QLP,7QNK,7U6Q,8DE0

> <UniProt (SwissProt) Recommended Name of Target Chain>
Beta-lactamase TEM

> <UniProt (SwissProt) Entry Name of Target Chain>
BLAT_ECOLX

> <UniProt (SwissProt) Primary ID of Target Chain>
P62593

> <UniProt (SwissProt) Secondary ID(s) of Target Chain>
P00810 Q47313

> <UniProt (SwissProt) Alternative ID(s) of Target Chain>


> <UniProt (TrEMBL) Submitted Name of Target Chain>


> <UniProt (TrEMBL) Entry Name of Target Chain>


> <UniProt (TrEMBL) Primary ID of Target Chain>


> <UniProt (TrEMBL) Secondary ID(s) of Target Chain>


> <UniProt (TrEMBL) Alternative ID(s) of Target Chain>


$$$$

  Mrv0541 11221409162D          

 13 14  0  0  0  0            999 V2000
    1.0855    2.0488    0.0000 C   0  0  0  0  0  0  0  0  0  0  0  0
    1.0843    1.2220    0.0000 C   0  0  0  0  0  0  0  0  0  0  0  0
    1.7986    0.8093    0.0000 C   0  0  0  0  0  0  0  0  0  0  0  0
    1.7968    2.4614    0.0000 C   0  0  0  0  0  0  0  0  0  0  0  0
    2.5118    2.0525    0.0000 C   0  0  0  0  0  0  0  0  0  0  0  0
    2.5121    1.2219    0.0000 C   0  0  0  0  0  0  0  0  0  0  0  0
    3.3021    0.9654    0.0000 S   0  0  0  0  0  0  0  0  0  0  0  0
    3.7902    1.6375    0.0000 C   0  0  0  0  0  0  0  0  0  0  0  0
    3.3017    2.3093    0.0000 C   0  0  0  0  0  0  0  0  0  0  0  0
    4.6147    1.6378    0.0000 B   0  0  0  0  0  0  0  0  0  0  0  0
    5.0271    0.9240    0.0000 O   0  0  0  0  0  0  0  0  0  0  0  0
    5.0266    2.3520    0.0000 O   0  0  0  0  0  0  0  0  0  0  0  0
    0.3713    2.4610    0.0000 C   0  0  0  0  0  0  0  0  0  0  0  0
  3  6  2  0  0  0  0
  1  2  2  0  0  0  0
  5  4  2  0  0  0  0
  6  7  1  0  0  0  0
  7  8  1  0  0  0  0
  8  9  2  0  0  0  0
  9  5  1  0  0  0  0
  4  1  1  0  0  0  0
  8 10  1  0  0  0  0
  5  6  1  0  0  0  0
 10 11  1  0  0  0  0
 10 12  1  0  0  0  0
  2  3  1  0  0  0  0
  1 13  1  0  0  0  0
M  END
> <From>
www.bindingDB.org

> <BindingDB Reactant_set_id>
50404421

> <Ligand InChI>
InChI=1S/C9H9BO2S/c1-6-2-3-8-7(4-6)5-9(13-8)10(11)12/h2-5,11-12H,1H3

> <Ligand InChI Key>
DHNHZPQPQAINDI-UHFFFAOYSA-N

> <BindingDB MonomerID>
50225371

> <BindingDB Ligand Name>
5-methyl-benzo[b]thiophen-2-ylboronic acid::CHEMBL238243

> <Target Name>
Beta-lactamase TEM

> <Target Source Organism According to Curator or DataSource>


> <Ki (nM)>
 30

> <IC50 (nM)>


> <Kd (nM)>


> <EC50 (nM)>


> <kon (M-1-s-1)>


> <koff (s-1)>


> <pH>


> <Temp C>


> <Curation/DataSource>
ChEMBL

> <Article DOI>
10.1021/jm070643q

> <BindingDB Entry DOI>
10.7270/Q21N80W5

> <PMID>
17956081

> <PubChem AID>


> <Patent Number>


> <Authors>
Venturelli, A; Tondi, D; Cancian, L; Morandi, F; Cannazza, G; Segatore, B; Prati, F; Amicosante, G; Shoichet, BK; Costi, MP

> <Institution>
Universit&#224; degli Studi di Modena e Reggio Emilia

> <Link to Ligand in BindingDB>
http://www.bindingdb.org/bind/chemsearch/marvin/MolStructure.jsp?monomerid=50225371

> <Link to Ligand-Target Pair in BindingDB>
http://www.bindingdb.org/jsp/dbsearch/PrimarySearch_ki.jsp?energyterm=kJ/mole&tag=pol&polymerid=7704&target=Beta-lactamase+TEM&column=ki&startPg=0&Increment=50&submit=Search

> <Link to Ligand-Target Pair in BindingDB>
http://www.bindingdb.org/jsp/dbsearch/PrimarySearch_ki.jsp?energyterm=kJ/mole&tag=r21&monomerid=50225371&enzyme=Beta-lactamase+TEM&column=ki&startPg=0&Increment=50&submit=Search

> <Ligand HET ID in PDB>


> <PDB ID(s) for Ligand-Target Complex>


> <PubChem CID of Ligand>
2794641

> <PubChem SID of Ligand>
104096677

> <ChEBI ID of Ligand>


> <ChEMBL ID of Ligand>
CHEMBL238243

> <DrugBank ID of Ligand>


> <IUPHAR_GRAC ID of Ligand>


> <KEGG ID of Ligand>


> <ZINC ID of Ligand>


> <Number of Protein Chains in Target (bigger than 1 implies a multichain complex)>
1

> <BindingDB Target Chain Sequence>
MSIQHFRVALIPFFAAFCLPVFAHPETLVKVKDAEDQLGARVGYIELDLNSGKILESFRPEERFPMMSTFKVLLCGAVLSRVDAGQEQLGRRIHYSQNDLVEYSPVTEKHLTDGMTVRELCSAAITMSDNTAANLLLTTIGGPKELTAFLHNMGDHVTRLDRWEPELNEAIPNDERDTTMPAAMATTLRKLLTGELLTLASRQQLIDWMEADKVAGPLLRSALPAGWFIADKSGAGERGSRGIIAALGPDGKPSRIVVIYTTGSQATMDERNRQIAEIGASLIKHW

> <PDB ID(s) of Target Chain>
1ERM,1ERO,1ERQ,1ESU,1FQG,1JTD,1JVJ,1JWP,1JWV,1LHY,1LI9,1M40,1NXY,1NY0,1NYM,1NYY,1PZO,1PZP,1S0W,1XPB,1YT4,2V1Z,2V20,3CMZ,3DTM,3JYI,3P98,4DXB,4DXC,4GKU,4ZJ2,5AQ8,5HVI,5HW1,5HW5,5NPO,6B2N,7QLP,7QNK,7U6Q,8DE0

> <UniProt (SwissProt) Recommended Name of Target Chain>
Beta-lactamase TEM

> <UniProt (SwissProt) Entry Name of Target Chain>
BLAT_ECOLX

> <UniProt (SwissProt) Primary ID of Target Chain>
P62593

> <UniProt (SwissProt) Secondary ID(s) of Target Chain>
P00810 Q47313

> <UniProt (SwissProt) Alternative ID(s) of Target Chain>


> <UniProt (TrEMBL) Submitted Name of Target Chain>


> <UniProt (TrEMBL) Entry Name of Target Chain>


> <UniProt (TrEMBL) Primary ID of Target Chain>


> <UniProt (TrEMBL) Secondary ID(s) of Target Chain>


> <UniProt (TrEMBL) Alternative ID(s) of Target Chain>


$$$$

  Mrv0541 11221409162D          

 13 14  0  0  0  0            999 V2000
    6.7645    1.8403    0.0000 C   0  0  0  0  0  0  0  0  0  0  0  0
    6.7633    1.0136    0.0000 C   0  0  0  0  0  0  0  0  0  0  0  0
    7.4777    0.6010    0.0000 C   0  0  0  0  0  0  0  0  0  0  0  0
    7.4759    2.2529    0.0000 C   0  0  0  0  0  0  0  0  0  0  0  0
    8.1907    1.8439    0.0000 C   0  0  0  0  0  0  0  0  0  0  0  0
    8.1910    1.0136    0.0000 C   0  0  0  0  0  0  0  0  0  0  0  0
    8.9809    0.7571    0.0000 S   0  0  0  0  0  0  0  0  0  0  0  0
    9.4688    1.4292    0.0000 C   0  0  0  0  0  0  0  0  0  0  0  0
    8.9804    2.1008    0.0000 C   0  0  0  0  0  0  0  0  0  0  0  0
   10.2933    1.4295    0.0000 B   0  0  0  0  0  0  0  0  0  0  0  0
   10.7056    0.7156    0.0000 O   0  0  0  0  0  0  0  0  0  0  0  0
   10.7051    2.1435    0.0000 O   0  0  0  0  0  0  0  0  0  0  0  0
    6.0504    2.2524    0.0000 Br  0  0  0  0  0  0  0  0  0  0  0  0
  3  6  2  0  0  0  0
  1  2  2  0  0  0  0
  5  4  2  0  0  0  0
  6  7  1  0  0  0  0
  7  8  1  0  0  0  0
  8  9  2  0  0  0  0
  9  5  1  0  0  0  0
  4  1  1  0  0  0  0
  8 10  1  0  0  0  0
  5  6  1  0  0  0  0
 10 11  1  0  0  0  0
 10 12  1  0  0  0  0
  2  3  1  0  0  0  0
  1 13  1  0  0  0  0
M  END
> <From>
www.bindingDB.org

> <BindingDB Reactant_set_id>
50404426

> <Ligand InChI>
InChI=1S/C8H6BBrO2S/c10-6-1-2-7-5(3-6)4-8(13-7)9(11)12/h1-4,11-12H

> <Ligand InChI Key>
RUQKSUMPFAJLNQ-UHFFFAOYSA-N

> <BindingDB MonomerID>
50225376

> <BindingDB Ligand Name>
CHEMBL397522::pinacol 5-bromomethylbenzo[b]thiophen-2-ylboronate

> <Target Name>
Beta-lactamase TEM

> <Target Source Organism According to Curator or DataSource>


> <Ki (nM)>
 30

> <IC50 (nM)>


> <Kd (nM)>


> <EC50 (nM)>


> <kon (M-1-s-1)>


> <koff (s-1)>


> <pH>


> <Temp C>


> <Curation/DataSource>
ChEMBL

> <Article DOI>
10.1021/jm070643q

> <BindingDB Entry DOI>
10.7270/Q21N80W5

> <PMID>
17956081

> <PubChem AID>


> <Patent Number>


> <Authors>
Venturelli, A; Tondi, D; Cancian, L; Morandi, F; Cannazza, G; Segatore, B; Prati, F; Amicosante, G; Shoichet, BK; Costi, MP

> <Institution>
Universit&#224; degli Studi di Modena e Reggio Emilia

> <Link to Ligand in BindingDB>
http://www.bindingdb.org/bind/chemsearch/marvin/MolStructure.jsp?monomerid=50225376

> <Link to Ligand-Target Pair in BindingDB>
http://www.bindingdb.org/jsp/dbsearch/PrimarySearch_ki.jsp?energyterm=kJ/mole&tag=pol&polymerid=7704&target=Beta-lactamase+TEM&column=ki&startPg=0&Increment=50&submit=Search

> <Link to Ligand-Target Pair in BindingDB>
http://www.bindingdb.org/jsp/dbsearch/PrimarySearch_ki.jsp?energyterm=kJ/mole&tag=r21&monomerid=50225376&enzyme=Beta-lactamase+TEM&column=ki&startPg=0&Increment=50&submit=Search

> <Ligand HET ID in PDB>


> <PDB ID(s) for Ligand-Target Complex>


> <PubChem CID of Ligand>
23005355

> <PubChem SID of Ligand>
104096682

> <ChEBI ID of Ligand>


> <ChEMBL ID of Ligand>
CHEMBL397522

> <DrugBank ID of Ligand>


> <IUPHAR_GRAC ID of Ligand>


> <KEGG ID of Ligand>


> <ZINC ID of Ligand>


> <Number of Protein Chains in Target (bigger than 1 implies a multichain complex)>
1

> <BindingDB Target Chain Sequence>
MSIQHFRVALIPFFAAFCLPVFAHPETLVKVKDAEDQLGARVGYIELDLNSGKILESFRPEERFPMMSTFKVLLCGAVLSRVDAGQEQLGRRIHYSQNDLVEYSPVTEKHLTDGMTVRELCSAAITMSDNTAANLLLTTIGGPKELTAFLHNMGDHVTRLDRWEPELNEAIPNDERDTTMPAAMATTLRKLLTGELLTLASRQQLIDWMEADKVAGPLLRSALPAGWFIADKSGAGERGSRGIIAALGPDGKPSRIVVIYTTGSQATMDERNRQIAEIGASLIKHW

> <PDB ID(s) of Target Chain>
1ERM,1ERO,1ERQ,1ESU,1FQG,1JTD,1JVJ,1JWP,1JWV,1LHY,1LI9,1M40,1NXY,1NY0,1NYM,1NYY,1PZO,1PZP,1S0W,1XPB,1YT4,2V1Z,2V20,3CMZ,3DTM,3JYI,3P98,4DXB,4DXC,4GKU,4ZJ2,5AQ8,5HVI,5HW1,5HW5,5NPO,6B2N,7QLP,7QNK,7U6Q,8DE0

> <UniProt (SwissProt) Recommended Name of Target Chain>
Beta-lactamase TEM

> <UniProt (SwissProt) Entry Name of Target Chain>
BLAT_ECOLX

> <UniProt (SwissProt) Primary ID of Target Chain>
P62593

> <UniProt (SwissProt) Secondary ID(s) of Target Chain>
P00810 Q47313

> <UniProt (SwissProt) Alternative ID(s) of Target Chain>


> <UniProt (TrEMBL) Submitted Name of Target Chain>


> <UniProt (TrEMBL) Entry Name of Target Chain>


> <UniProt (TrEMBL) Primary ID of Target Chain>


> <UniProt (TrEMBL) Secondary ID(s) of Target Chain>


> <UniProt (TrEMBL) Alternative ID(s) of Target Chain>


$$$$

  Mrv0541 11191401012D          

 20 21  0  0  0  0            999 V2000
   -2.0920    2.6813    0.0000 C   0  0  0  0  0  0  0  0  0  0  0  0
   -1.3775    3.0938    0.0000 C   0  0  0  0  0  0  0  0  0  0  0  0
   -0.6630    2.6813    0.0000 N   0  0  0  0  0  0  0  0  0  0  0  0
   -1.3775    3.9188    0.0000 O   0  0  0  0  0  0  0  0  0  0  0  0
    0.0514    3.0938    0.0000 C   0  0  0  0  0  0  0  0  0  0  0  0
    0.7659    2.6813    0.0000 B   0  0  0  0  0  0  0  0  0  0  0  0
    1.4804    3.0938    0.0000 O   0  0  0  0  0  0  0  0  0  0  0  0
    0.7659    1.8563    0.0000 O   0  0  0  0  0  0  0  0  0  0  0  0
   -2.8064    3.0938    0.0000 C   0  0  0  0  0  0  0  0  0  0  0  0
   -3.5209    2.6813    0.0000 C   0  0  0  0  0  0  0  0  0  0  0  0
   -3.5209    1.8562    0.0000 C   0  0  0  0  0  0  0  0  0  0  0  0
   -2.8064    1.4437    0.0000 C   0  0  0  0  0  0  0  0  0  0  0  0
   -2.0920    1.8562    0.0000 C   0  0  0  0  0  0  0  0  0  0  0  0
   -3.5209    4.3313    0.0000 C   0  0  0  0  0  0  0  0  0  0  0  0
   -4.2354    3.9188    0.0000 C   0  0  0  0  0  0  0  0  0  0  0  0
   -4.2354    3.0938    0.0000 C   0  0  0  0  0  0  0  0  0  0  0  0
   -2.8064    3.9188    0.0000 C   0  0  0  0  0  0  0  0  0  0  0  0
   -1.5086    1.2729    0.0000 O   0  0  0  0  0  0  0  0  0  0  0  0
   -1.7221    0.4760    0.0000 C   0  0  0  0  0  0  0  0  0  0  0  0
   -1.1388   -0.1074    0.0000 C   0  0  0  0  0  0  0  0  0  0  0  0
  1  2  1  0  0  0  0
  2  3  1  0  0  0  0
  2  4  2  0  0  0  0
  3  5  1  0  0  0  0
  5  6  1  0  0  0  0
  6  7  1  0  0  0  0
  6  8  1  0  0  0  0
 13  1  1  0  0  0  0
  9  1  2  0  0  0  0
 10 11  2  0  0  0  0
 11 12  1  0  0  0  0
 12 13  2  0  0  0  0
 16 10  1  0  0  0  0
  9 10  1  0  0  0  0
  9 17  1  0  0  0  0
 14 15  1  0  0  0  0
 15 16  2  0  0  0  0
 14 17  2  0  0  0  0
 13 18  1  0  0  0  0
 18 19  1  0  0  0  0
 19 20  1  0  0  0  0
M  END
> <From>
www.bindingDB.org

> <BindingDB Reactant_set_id>
74787

> <Ligand InChI>
InChI=1S/C14H16BNO4/c1-2-20-12-8-7-10-5-3-4-6-11(10)13(12)14(17)16-9-15(18)19/h3-8,18-19H,2,9H2,1H3,(H,16,17)

> <Ligand InChI Key>
VGXJNGVFESCMME-UHFFFAOYSA-N

> <BindingDB MonomerID>
39812

> <BindingDB Ligand Name>
Acylglycineboronic acid, 10

> <Target Name>
Beta-lactamase

> <Target Source Organism According to Curator or DataSource>
Escherichia coli

> <Ki (nM)>
 33

> <IC50 (nM)>


> <Kd (nM)>


> <EC50 (nM)>


> <kon (M-1-s-1)>


> <koff (s-1)>


> <pH>
7

> <Temp C>


> <Curation/DataSource>
Curated from the literature by BindingDB

> <Article DOI>
10.1016/S1074-5521(00)00052-1

> <BindingDB Entry DOI>
10.7270/Q2CC0Z3R

> <PMID>
11182316

> <PubChem AID>
aid1799471

> <Patent Number>


> <Authors>
Caselli, E; Powers, RA; Blasczcak, LC; Wu, CY; Prati, F; Shoichet, BK

> <Institution>
Northwestern University

> <Link to Ligand in BindingDB>
http://www.bindingdb.org/bind/chemsearch/marvin/MolStructure.jsp?monomerid=39812

> <Link to Ligand-Target Pair in BindingDB>
http://www.bindingdb.org/jsp/dbsearch/PrimarySearch_ki.jsp?energyterm=kJ/mole&tag=pol&polymerid=4401&target=Beta-lactamase&column=ki&startPg=0&Increment=50&submit=Search

> <Link to Ligand-Target Pair in BindingDB>
http://www.bindingdb.org/jsp/dbsearch/PrimarySearch_ki.jsp?energyterm=kJ/mole&tag=r21&monomerid=39812&enzyme=Beta-lactamase&column=ki&startPg=0&Increment=50&submit=Search

> <Ligand HET ID in PDB>
NBF

> <PDB ID(s) for Ligand-Target Complex>
1NY0,1YMS

> <PubChem CID of Ligand>
5288987

> <PubChem SID of Ligand>
123080120

> <ChEBI ID of Ligand>


> <ChEMBL ID of Ligand>


> <DrugBank ID of Ligand>
DB02841

> <IUPHAR_GRAC ID of Ligand>


> <KEGG ID of Ligand>


> <ZINC ID of Ligand>


> <Number of Protein Chains in Target (bigger than 1 implies a multichain complex)>
1

> <BindingDB Target Chain Sequence>
MFKTTLCALLITASCSTFAAPQQINDIVHRTITPLIEQQKIPGMAVAVIYQGKPYYFTWGYADIAKKQPVTQQTLFELGSVSKTFTGVLGGDAIARGEIKLSDPTTKYWPELTAKQWNGITLLHLATYTAGGLPLQVPDEVKSSSDLLRFYQNWQPAWAPGTQRLYANSSIGLFGALAVKPSGLSFEQAMQTRVFQPLKLNHTWINVPPAEEKNYAWGYREGKAVHVSPGALDAEAYGVKSTIEDMARWVQSNLKPLDINEKTLQQGIQLAQSRYWQTGDMYQGLGWEMLDWPVNPDSIINGSDNKIALAARPVKAITPPTPAVRASWVHKTGATGGFGSYVAFIPEKELGIVMLANKNYPNPARVDAAWQILNALQ

> <PDB ID(s) of Target Chain>
1C3B,1FCO,1FSW,1FSY,1GA9,1IEL,1IEM,1KDS,1KDW,1KE0,1KE3,1KE4,1KVM,1L2S,1LL5,1LL9,1LLB,1MXO,1MY8,1XGI,1XGJ,2BLS,2HDQ,2HDR,2HDS,2HDU,2I72,2P9V,2PU2,2PU4,2R9W,2R9X,2RCX,3BLS,3BM6,3GQZ,3GR2,3GRJ,3GSG,3GTC,3GV9,3GVB,3O86,3O87,3O88,4E3I,4E3J,4E3K,4E3L,4E3M,4E3N,4E3O,4JXG,4JXS,4JXV,4JXW,4KG2,4KZ3,4KZ4,4KZ5,4KZ6,4KZ7,4KZ8,4KZ9,4KZA,4KZB,4LV0,4LV1,4LV2,4LV3,4OKP,4OLD,4OLG,6DPT,6DPX,6DPY,6DPZ,6T35,6T3D,6T5Y,6T7L,6TBW,6TPM,6WGQ,6YEN,6YEO,6YPD

> <UniProt (SwissProt) Recommended Name of Target Chain>
Beta-lactamase

> <UniProt (SwissProt) Entry Name of Target Chain>
AMPC_ECOLI

> <UniProt (SwissProt) Primary ID of Target Chain>
P00811

> <UniProt (SwissProt) Secondary ID(s) of Target Chain>
Q2M6F2

> <UniProt (SwissProt) Alternative ID(s) of Target Chain>


> <UniProt (TrEMBL) Submitted Name of Target Chain>


> <UniProt (TrEMBL) Entry Name of Target Chain>


> <UniProt (TrEMBL) Primary ID of Target Chain>


> <UniProt (TrEMBL) Secondary ID(s) of Target Chain>


> <UniProt (TrEMBL) Alternative ID(s) of Target Chain>


$$$$

  Mrv0541 11221409162D          

 18 19  0  0  0  0            999 V2000
   -2.7690   -1.1402    0.0000 C   0  0  0  0  0  0  0  0  0  0  0  0
   -2.7701   -1.9625    0.0000 C   0  0  0  0  0  0  0  0  0  0  0  0
   -2.0520   -2.3749    0.0000 C   0  0  0  0  0  0  0  0  0  0  0  0
   -2.0538   -0.7280    0.0000 C   0  0  0  0  0  0  0  0  0  0  0  0
   -1.3434   -1.1367    0.0000 C   0  0  0  0  0  0  0  0  0  0  0  0
   -1.3432   -1.9626    0.0000 C   0  0  0  0  0  0  0  0  0  0  0  0
   -0.5578   -2.2147    0.0000 S   0  0  0  0  0  0  0  0  0  0  0  0
   -0.0784   -1.5555    0.0000 C   0  0  0  0  0  0  0  0  0  0  0  0
   -0.5582   -0.8842    0.0000 C   0  0  0  0  0  0  0  0  0  0  0  0
    0.7456   -1.5594    0.0000 B   0  0  0  0  0  0  0  0  0  0  0  0
    1.1579   -2.2686    0.0000 O   0  0  0  0  0  0  0  0  0  0  0  0
    1.1574   -0.8414    0.0000 O   0  0  0  0  0  0  0  0  0  0  0  0
   -3.4911   -0.7242    0.0000 C   0  0  0  0  0  0  0  0  0  0  0  0
   -4.2029   -1.1404    0.0000 N   0  0  0  0  0  0  0  0  0  0  0  0
   -4.1924   -1.9688    0.0000 C   0  0  0  0  0  0  0  0  0  0  0  0
   -3.4810   -2.3808    0.0000 O   0  0  0  0  0  0  0  0  0  0  0  0
   -4.9210   -0.7366    0.0000 C   0  0  0  0  0  0  0  0  0  0  0  0
   -5.6370   -1.1569    0.0000 O   0  0  0  0  0  0  0  0  0  0  0  0
  8  9  2  0  0  0  0
  9  5  1  0  0  0  0
  4  1  1  0  0  0  0
  8 10  1  0  0  0  0
  5  6  1  0  0  0  0
 10 11  1  0  0  0  0
 10 12  1  0  0  0  0
  2  3  1  0  0  0  0
  1 13  1  0  0  0  0
  3  6  2  0  0  0  0
 13 14  1  0  0  0  0
  1  2  2  0  0  0  0
 14 15  1  0  0  0  0
  5  4  2  0  0  0  0
 15 16  2  0  0  0  0
  6  7  1  0  0  0  0
 14 17  1  0  0  0  0
  7  8  1  0  0  0  0
 17 18  2  0  0  0  0
M  END
> <From>
www.bindingDB.org

> <BindingDB Reactant_set_id>
50404428

> <Ligand InChI>
InChI=1S/C11H10BNO4S/c14-6-13(7-15)5-8-1-2-10-9(3-8)4-11(18-10)12(16)17/h1-4,6-7,16-17H,5H2

> <Ligand InChI Key>
GVTZPLCQJFQOTQ-UHFFFAOYSA-N

> <BindingDB MonomerID>
50225378

> <BindingDB Ligand Name>
CHEMBL235073::pinacol 5-diformylaminomethylbenzo[b]thiophen-2-ylboronate::{5-[(DIFORMYLAMINO)METHYL]-1-BENZOTHIEN-2-YL}BORONIC ACID

> <Target Name>
Beta-lactamase TEM

> <Target Source Organism According to Curator or DataSource>


> <Ki (nM)>
 37

> <IC50 (nM)>


> <Kd (nM)>


> <EC50 (nM)>


> <kon (M-1-s-1)>


> <koff (s-1)>


> <pH>


> <Temp C>


> <Curation/DataSource>
ChEMBL

> <Article DOI>
10.1021/jm070643q

> <BindingDB Entry DOI>
10.7270/Q21N80W5

> <PMID>
17956081

> <PubChem AID>


> <Patent Number>


> <Authors>
Venturelli, A; Tondi, D; Cancian, L; Morandi, F; Cannazza, G; Segatore, B; Prati, F; Amicosante, G; Shoichet, BK; Costi, MP

> <Institution>
Universit&#224; degli Studi di Modena e Reggio Emilia

> <Link to Ligand in BindingDB>
http://www.bindingdb.org/bind/chemsearch/marvin/MolStructure.jsp?monomerid=50225378

> <Link to Ligand-Target Pair in BindingDB>
http://www.bindingdb.org/jsp/dbsearch/PrimarySearch_ki.jsp?energyterm=kJ/mole&tag=pol&polymerid=7704&target=Beta-lactamase+TEM&column=ki&startPg=0&Increment=50&submit=Search

> <Link to Ligand-Target Pair in BindingDB>
http://www.bindingdb.org/jsp/dbsearch/PrimarySearch_ki.jsp?energyterm=kJ/mole&tag=r21&monomerid=50225378&enzyme=Beta-lactamase+TEM&column=ki&startPg=0&Increment=50&submit=Search

> <Ligand HET ID in PDB>
VA1

> <PDB ID(s) for Ligand-Target Complex>
2I72

> <PubChem CID of Ligand>
23655305

> <PubChem SID of Ligand>
104096684

> <ChEBI ID of Ligand>


> <ChEMBL ID of Ligand>
CHEMBL235073

> <DrugBank ID of Ligand>


> <IUPHAR_GRAC ID of Ligand>


> <KEGG ID of Ligand>


> <ZINC ID of Ligand>


> <Number of Protein Chains in Target (bigger than 1 implies a multichain complex)>
1

> <BindingDB Target Chain Sequence>
MSIQHFRVALIPFFAAFCLPVFAHPETLVKVKDAEDQLGARVGYIELDLNSGKILESFRPEERFPMMSTFKVLLCGAVLSRVDAGQEQLGRRIHYSQNDLVEYSPVTEKHLTDGMTVRELCSAAITMSDNTAANLLLTTIGGPKELTAFLHNMGDHVTRLDRWEPELNEAIPNDERDTTMPAAMATTLRKLLTGELLTLASRQQLIDWMEADKVAGPLLRSALPAGWFIADKSGAGERGSRGIIAALGPDGKPSRIVVIYTTGSQATMDERNRQIAEIGASLIKHW

> <PDB ID(s) of Target Chain>
1ERM,1ERO,1ERQ,1ESU,1FQG,1JTD,1JVJ,1JWP,1JWV,1LHY,1LI9,1M40,1NXY,1NY0,1NYM,1NYY,1PZO,1PZP,1S0W,1XPB,1YT4,2V1Z,2V20,3CMZ,3DTM,3JYI,3P98,4DXB,4DXC,4GKU,4ZJ2,5AQ8,5HVI,5HW1,5HW5,5NPO,6B2N,7QLP,7QNK,7U6Q,8DE0

> <UniProt (SwissProt) Recommended Name of Target Chain>
Beta-lactamase TEM

> <UniProt (SwissProt) Entry Name of Target Chain>
BLAT_ECOLX

> <UniProt (SwissProt) Primary ID of Target Chain>
P62593

> <UniProt (SwissProt) Secondary ID(s) of Target Chain>
P00810 Q47313

> <UniProt (SwissProt) Alternative ID(s) of Target Chain>


> <UniProt (TrEMBL) Submitted Name of Target Chain>


> <UniProt (TrEMBL) Entry Name of Target Chain>


> <UniProt (TrEMBL) Primary ID of Target Chain>


> <UniProt (TrEMBL) Secondary ID(s) of Target Chain>


> <UniProt (TrEMBL) Alternative ID(s) of Target Chain>


$$$$

  Mrv0541 11221409162D          

 23 25  0  0  0  0            999 V2000
   -1.7777   -6.3105    0.0000 C   0  0  0  0  0  0  0  0  0  0  0  0
   -1.7789   -7.1324    0.0000 C   0  0  0  0  0  0  0  0  0  0  0  0
   -1.0611   -7.5446    0.0000 C   0  0  0  0  0  0  0  0  0  0  0  0
   -1.0629   -5.8984    0.0000 C   0  0  0  0  0  0  0  0  0  0  0  0
   -0.3528   -6.3069    0.0000 C   0  0  0  0  0  0  0  0  0  0  0  0
   -0.3525   -7.1324    0.0000 C   0  0  0  0  0  0  0  0  0  0  0  0
    0.4325   -7.3844    0.0000 S   0  0  0  0  0  0  0  0  0  0  0  0
    0.9117   -6.7255    0.0000 C   0  0  0  0  0  0  0  0  0  0  0  0
    0.4321   -6.0544    0.0000 C   0  0  0  0  0  0  0  0  0  0  0  0
    1.7354   -6.7293    0.0000 B   0  0  0  0  0  0  0  0  0  0  0  0
    2.1474   -7.4384    0.0000 O   0  0  0  0  0  0  0  0  0  0  0  0
    2.1469   -6.0118    0.0000 O   0  0  0  0  0  0  0  0  0  0  0  0
   -2.4994   -5.8947    0.0000 C   0  0  0  0  0  0  0  0  0  0  0  0
   -3.2110   -6.3107    0.0000 N   0  0  0  0  0  0  0  0  0  0  0  0
   -3.9285   -5.9032    0.0000 C   0  0  0  0  0  0  0  0  0  0  0  0
   -3.9317   -5.0829    0.0000 C   0  0  0  0  0  0  0  0  0  0  0  0
   -4.6447   -4.6713    0.0000 C   0  0  0  0  0  0  0  0  0  0  0  0
   -5.3740   -5.0875    0.0000 C   0  0  0  0  0  0  0  0  0  0  0  0
   -5.3643   -5.9154    0.0000 C   0  0  0  0  0  0  0  0  0  0  0  0
   -4.6465   -6.3233    0.0000 C   0  0  0  0  0  0  0  0  0  0  0  0
   -4.6304   -3.8476    0.0000 N   0  3  0  0  0  0  0  0  0  0  0  0
   -5.3444   -3.4267    0.0000 O   0  0  0  0  0  0  0  0  0  0  0  0
   -3.9178   -3.4423    0.0000 O   0  5  0  0  0  0  0  0  0  0  0  0
 10 11  1  0  0  0  0
 10 12  1  0  0  0  0
  2  3  1  0  0  0  0
  1 13  1  0  0  0  0
  3  6  2  0  0  0  0
 13 14  1  0  0  0  0
  1  2  2  0  0  0  0
 14 15  1  0  0  0  0
  5  4  2  0  0  0  0
 15 16  2  0  0  0  0
  6  7  1  0  0  0  0
 16 17  1  0  0  0  0
  7  8  1  0  0  0  0
 17 18  2  0  0  0  0
  8  9  2  0  0  0  0
 18 19  1  0  0  0  0
  9  5  1  0  0  0  0
 19 20  2  0  0  0  0
 20 15  1  0  0  0  0
  4  1  1  0  0  0  0
 17 21  1  0  0  0  0
  8 10  1  0  0  0  0
  5  6  1  0  0  0  0
 21 22  2  0  0  0  0
 21 23  1  0  0  0  0
M  CHG  2  21   1  23  -1
M  END
> <From>
www.bindingDB.org

> <BindingDB Reactant_set_id>
50404430

> <Ligand InChI>
InChI=1S/C15H13BN2O4S/c19-16(20)15-7-11-6-10(4-5-14(11)23-15)9-17-12-2-1-3-13(8-12)18(21)22/h1-8,17,19-20H,9H2

> <Ligand InChI Key>
XVMINMUHFBYDMD-UHFFFAOYSA-N

> <BindingDB MonomerID>
50225379

> <BindingDB Ligand Name>
CHEMBL235292::pinacol 5-[(3-nitrophenylamino)methyl]benzo[b]thiophen-2-ylboronate

> <Target Name>
Beta-lactamase TEM

> <Target Source Organism According to Curator or DataSource>


> <Ki (nM)>
 37

> <IC50 (nM)>


> <Kd (nM)>


> <EC50 (nM)>


> <kon (M-1-s-1)>


> <koff (s-1)>


> <pH>


> <Temp C>


> <Curation/DataSource>
ChEMBL

> <Article DOI>
10.1021/jm070643q

> <BindingDB Entry DOI>
10.7270/Q21N80W5

> <PMID>
17956081

> <PubChem AID>


> <Patent Number>


> <Authors>
Venturelli, A; Tondi, D; Cancian, L; Morandi, F; Cannazza, G; Segatore, B; Prati, F; Amicosante, G; Shoichet, BK; Costi, MP

> <Institution>
Universit&#224; degli Studi di Modena e Reggio Emilia

> <Link to Ligand in BindingDB>
http://www.bindingdb.org/bind/chemsearch/marvin/MolStructure.jsp?monomerid=50225379

> <Link to Ligand-Target Pair in BindingDB>
http://www.bindingdb.org/jsp/dbsearch/PrimarySearch_ki.jsp?energyterm=kJ/mole&tag=pol&polymerid=7704&target=Beta-lactamase+TEM&column=ki&startPg=0&Increment=50&submit=Search

> <Link to Ligand-Target Pair in BindingDB>
http://www.bindingdb.org/jsp/dbsearch/PrimarySearch_ki.jsp?energyterm=kJ/mole&tag=r21&monomerid=50225379&enzyme=Beta-lactamase+TEM&column=ki&startPg=0&Increment=50&submit=Search

> <Ligand HET ID in PDB>


> <PDB ID(s) for Ligand-Target Complex>


> <PubChem CID of Ligand>
23655308

> <PubChem SID of Ligand>
104096685

> <ChEBI ID of Ligand>


> <ChEMBL ID of Ligand>
CHEMBL235292

> <DrugBank ID of Ligand>


> <IUPHAR_GRAC ID of Ligand>


> <KEGG ID of Ligand>


> <ZINC ID of Ligand>


> <Number of Protein Chains in Target (bigger than 1 implies a multichain complex)>
1

> <BindingDB Target Chain Sequence>
MSIQHFRVALIPFFAAFCLPVFAHPETLVKVKDAEDQLGARVGYIELDLNSGKILESFRPEERFPMMSTFKVLLCGAVLSRVDAGQEQLGRRIHYSQNDLVEYSPVTEKHLTDGMTVRELCSAAITMSDNTAANLLLTTIGGPKELTAFLHNMGDHVTRLDRWEPELNEAIPNDERDTTMPAAMATTLRKLLTGELLTLASRQQLIDWMEADKVAGPLLRSALPAGWFIADKSGAGERGSRGIIAALGPDGKPSRIVVIYTTGSQATMDERNRQIAEIGASLIKHW

> <PDB ID(s) of Target Chain>
1ERM,1ERO,1ERQ,1ESU,1FQG,1JTD,1JVJ,1JWP,1JWV,1LHY,1LI9,1M40,1NXY,1NY0,1NYM,1NYY,1PZO,1PZP,1S0W,1XPB,1YT4,2V1Z,2V20,3CMZ,3DTM,3JYI,3P98,4DXB,4DXC,4GKU,4ZJ2,5AQ8,5HVI,5HW1,5HW5,5NPO,6B2N,7QLP,7QNK,7U6Q,8DE0

> <UniProt (SwissProt) Recommended Name of Target Chain>
Beta-lactamase TEM

> <UniProt (SwissProt) Entry Name of Target Chain>
BLAT_ECOLX

> <UniProt (SwissProt) Primary ID of Target Chain>
P62593

> <UniProt (SwissProt) Secondary ID(s) of Target Chain>
P00810 Q47313

> <UniProt (SwissProt) Alternative ID(s) of Target Chain>


> <UniProt (TrEMBL) Submitted Name of Target Chain>


> <UniProt (TrEMBL) Entry Name of Target Chain>


> <UniProt (TrEMBL) Primary ID of Target Chain>


> <UniProt (TrEMBL) Secondary ID(s) of Target Chain>


> <UniProt (TrEMBL) Alternative ID(s) of Target Chain>


$$$$

     RDKit          2D

 17 18  0  0  0  0  0  0  0  0999 V2000
   16.2970   -3.9415    0.0000 C   0  0  0  0  0  0  0  0  0  0  0  0
   16.2959   -4.7610    0.0000 C   0  0  0  0  0  0  0  0  0  0  0  0
   17.0039   -5.1700    0.0000 C   0  0  0  0  0  0  0  0  0  0  0  0
   17.0021   -3.5326    0.0000 C   0  0  0  0  0  0  0  0  0  0  0  0
   17.7107   -3.9379    0.0000 C   0  0  0  0  0  0  0  0  0  0  0  0
   17.7110   -4.7610    0.0000 C   0  0  0  0  0  0  0  0  0  0  0  0
   18.4940   -5.0152    0.0000 S   0  0  0  0  0  0  0  0  0  0  0  0
   18.9777   -4.3491    0.0000 C   0  0  0  0  0  0  0  0  0  0  0  0
   18.4936   -3.6833    0.0000 C   0  0  0  0  0  0  0  0  0  0  0  0
   19.7949   -4.3488    0.0000 B   0  0  0  0  0  0  0  0  0  0  0  0
   20.2037   -5.0563    0.0000 O   0  0  0  0  0  0  0  0  0  0  0  0
   20.2032   -3.6409    0.0000 O   0  0  0  0  0  0  0  0  0  0  0  0
   18.7458   -2.9060    0.0000 C   0  0  0  0  0  0  0  0  0  0  0  0
   18.1988   -2.2989    0.0000 C   0  0  0  0  0  0  0  0  0  0  0  0
   18.4511   -1.5217    0.0000 C   0  0  0  0  0  0  0  0  0  0  0  0
   17.9041   -0.9180    0.0000 O   0  0  0  0  0  0  0  0  0  0  0  0
   19.2504   -1.3515    0.0000 O   0  0  0  0  0  0  0  0  0  0  0  0
  1  2  2  0
  2  3  1  0
  3  6  2  0
  5  4  2  0
  4  1  1  0
  5  6  1  0
  6  7  1  0
  7  8  1  0
  8  9  2  0
  9  5  1  0
  8 10  1  0
 10 11  1  0
 10 12  1  0
  9 13  1  0
 13 14  2  0
 14 15  1  0
 15 16  1  0
 15 17  2  0
M  END
> <From>
www.bindingDB.org

> <BindingDB Reactant_set_id>
51265229

> <Ligand InChI>
InChI=1S/C11H9BO4S/c13-10(14)6-5-8-7-3-1-2-4-9(7)17-11(8)12(15)16/h1-6,15-16H,(H,13,14)/b6-5+

> <Ligand InChI Key>
IYRVQPJBSDCZBO-AATRIKPKSA-N

> <BindingDB MonomerID>
50516761

> <BindingDB Ligand Name>
CHEMBL3286879

> <Target Name>
Beta-lactamase TEM

> <Target Source Organism According to Curator or DataSource>


> <Ki (nM)>
 40

> <IC50 (nM)>


> <Kd (nM)>


> <EC50 (nM)>


> <kon (M-1-s-1)>


> <koff (s-1)>


> <pH>


> <Temp C>


> <Curation/DataSource>
ChEMBL

> <Article DOI>
10.1016/j.ejmech.2019.06.092

> <BindingDB Entry DOI>
10.7270/Q28055ZM

> <PMID>
31288128

> <PubChem AID>


> <Patent Number>


> <Authors>
Fernandes, GFS; Denny, WA; Dos Santos, JL

> <Institution>
S&#163;o Paulo State University

> <Link to Ligand in BindingDB>
http://www.bindingdb.org/bind/chemsearch/marvin/MolStructure.jsp?monomerid=50516761

> <Link to Ligand-Target Pair in BindingDB>
http://www.bindingdb.org/jsp/dbsearch/PrimarySearch_ki.jsp?energyterm=kJ/mole&tag=pol&polymerid=7704&target=Beta-lactamase+TEM&column=ki&startPg=0&Increment=50&submit=Search

> <Link to Ligand-Target Pair in BindingDB>
http://www.bindingdb.org/jsp/dbsearch/PrimarySearch_ki.jsp?energyterm=kJ/mole&tag=r21&monomerid=50516761&enzyme=Beta-lactamase+TEM&column=ki&startPg=0&Increment=50&submit=Search

> <Ligand HET ID in PDB>
2GK

> <PDB ID(s) for Ligand-Target Complex>
4LEN

> <PubChem CID of Ligand>
90680707

> <PubChem SID of Ligand>
440725343

> <ChEBI ID of Ligand>


> <ChEMBL ID of Ligand>


> <DrugBank ID of Ligand>


> <IUPHAR_GRAC ID of Ligand>


> <KEGG ID of Ligand>


> <ZINC ID of Ligand>


> <Number of Protein Chains in Target (bigger than 1 implies a multichain complex)>
1

> <BindingDB Target Chain Sequence>
MSIQHFRVALIPFFAAFCLPVFAHPETLVKVKDAEDQLGARVGYIELDLNSGKILESFRPEERFPMMSTFKVLLCGAVLSRVDAGQEQLGRRIHYSQNDLVEYSPVTEKHLTDGMTVRELCSAAITMSDNTAANLLLTTIGGPKELTAFLHNMGDHVTRLDRWEPELNEAIPNDERDTTMPAAMATTLRKLLTGELLTLASRQQLIDWMEADKVAGPLLRSALPAGWFIADKSGAGERGSRGIIAALGPDGKPSRIVVIYTTGSQATMDERNRQIAEIGASLIKHW

> <PDB ID(s) of Target Chain>
1ERM,1ERO,1ERQ,1ESU,1FQG,1JTD,1JVJ,1JWP,1JWV,1LHY,1LI9,1M40,1NXY,1NY0,1NYM,1NYY,1PZO,1PZP,1S0W,1XPB,1YT4,2V1Z,2V20,3CMZ,3DTM,3JYI,3P98,4DXB,4DXC,4GKU,4ZJ2,5AQ8,5HVI,5HW1,5HW5,5NPO,6B2N,7QLP,7QNK,7U6Q,8DE0

> <UniProt (SwissProt) Recommended Name of Target Chain>
Beta-lactamase TEM

> <UniProt (SwissProt) Entry Name of Target Chain>
BLAT_ECOLX

> <UniProt (SwissProt) Primary ID of Target Chain>
P62593

> <UniProt (SwissProt) Secondary ID(s) of Target Chain>
P00810 Q47313

> <UniProt (SwissProt) Alternative ID(s) of Target Chain>


> <UniProt (TrEMBL) Submitted Name of Target Chain>


> <UniProt (TrEMBL) Entry Name of Target Chain>


> <UniProt (TrEMBL) Primary ID of Target Chain>


> <UniProt (TrEMBL) Secondary ID(s) of Target Chain>


> <UniProt (TrEMBL) Alternative ID(s) of Target Chain>


$$$$

  Mrv0541 11221409162D          

 13 14  0  0  0  0            999 V2000
   12.9459    2.1905    0.0000 C   0  0  0  0  0  0  0  0  0  0  0  0
   12.9448    1.3636    0.0000 C   0  0  0  0  0  0  0  0  0  0  0  0
   13.6592    0.9510    0.0000 C   0  0  0  0  0  0  0  0  0  0  0  0
   13.6574    2.6031    0.0000 C   0  0  0  0  0  0  0  0  0  0  0  0
   14.3724    2.1941    0.0000 C   0  0  0  0  0  0  0  0  0  0  0  0
   14.3726    1.3636    0.0000 C   0  0  0  0  0  0  0  0  0  0  0  0
   15.1627    1.1071    0.0000 S   0  0  0  0  0  0  0  0  0  0  0  0
   15.6507    1.7793    0.0000 C   0  0  0  0  0  0  0  0  0  0  0  0
   15.1623    2.4510    0.0000 C   0  0  0  0  0  0  0  0  0  0  0  0
   16.4753    1.7796    0.0000 B   0  0  0  0  0  0  0  0  0  0  0  0
   16.8879    1.0656    0.0000 O   0  0  0  0  0  0  0  0  0  0  0  0
   16.8874    2.4938    0.0000 O   0  0  0  0  0  0  0  0  0  0  0  0
   12.2318    2.6026    0.0000 O   0  0  0  0  0  0  0  0  0  0  0  0
  3  6  2  0  0  0  0
  1  2  2  0  0  0  0
  5  4  2  0  0  0  0
  6  7  1  0  0  0  0
  7  8  1  0  0  0  0
  8  9  2  0  0  0  0
  9  5  1  0  0  0  0
  4  1  1  0  0  0  0
  8 10  1  0  0  0  0
  5  6  1  0  0  0  0
 10 11  1  0  0  0  0
 10 12  1  0  0  0  0
  2  3  1  0  0  0  0
  1 13  1  0  0  0  0
M  END
> <From>
www.bindingDB.org

> <BindingDB Reactant_set_id>
50404442

> <Ligand InChI>
InChI=1S/C8H7BO3S/c10-6-1-2-7-5(3-6)4-8(13-7)9(11)12/h1-4,10-12H

> <Ligand InChI Key>
VDCIKADVYWVDGT-UHFFFAOYSA-N

> <BindingDB MonomerID>
50225392

> <BindingDB Ligand Name>
5-hydroxymethylbenzo[b]thiophen-2-ylboronic acid::CHEMBL395398

> <Target Name>
Beta-lactamase TEM

> <Target Source Organism According to Curator or DataSource>


> <Ki (nM)>
 43

> <IC50 (nM)>


> <Kd (nM)>


> <EC50 (nM)>


> <kon (M-1-s-1)>


> <koff (s-1)>


> <pH>


> <Temp C>


> <Curation/DataSource>
ChEMBL

> <Article DOI>
10.1021/jm070643q

> <BindingDB Entry DOI>
10.7270/Q21N80W5

> <PMID>
17956081

> <PubChem AID>


> <Patent Number>


> <Authors>
Venturelli, A; Tondi, D; Cancian, L; Morandi, F; Cannazza, G; Segatore, B; Prati, F; Amicosante, G; Shoichet, BK; Costi, MP

> <Institution>
Universit&#224; degli Studi di Modena e Reggio Emilia

> <Link to Ligand in BindingDB>
http://www.bindingdb.org/bind/chemsearch/marvin/MolStructure.jsp?monomerid=50225392

> <Link to Ligand-Target Pair in BindingDB>
http://www.bindingdb.org/jsp/dbsearch/PrimarySearch_ki.jsp?energyterm=kJ/mole&tag=pol&polymerid=7704&target=Beta-lactamase+TEM&column=ki&startPg=0&Increment=50&submit=Search

> <Link to Ligand-Target Pair in BindingDB>
http://www.bindingdb.org/jsp/dbsearch/PrimarySearch_ki.jsp?energyterm=kJ/mole&tag=r21&monomerid=50225392&enzyme=Beta-lactamase+TEM&column=ki&startPg=0&Increment=50&submit=Search

> <Ligand HET ID in PDB>


> <PDB ID(s) for Ligand-Target Complex>


> <PubChem CID of Ligand>
44435712

> <PubChem SID of Ligand>
104096698

> <ChEBI ID of Ligand>


> <ChEMBL ID of Ligand>
CHEMBL395398

> <DrugBank ID of Ligand>


> <IUPHAR_GRAC ID of Ligand>


> <KEGG ID of Ligand>


> <ZINC ID of Ligand>


> <Number of Protein Chains in Target (bigger than 1 implies a multichain complex)>
1

> <BindingDB Target Chain Sequence>
MSIQHFRVALIPFFAAFCLPVFAHPETLVKVKDAEDQLGARVGYIELDLNSGKILESFRPEERFPMMSTFKVLLCGAVLSRVDAGQEQLGRRIHYSQNDLVEYSPVTEKHLTDGMTVRELCSAAITMSDNTAANLLLTTIGGPKELTAFLHNMGDHVTRLDRWEPELNEAIPNDERDTTMPAAMATTLRKLLTGELLTLASRQQLIDWMEADKVAGPLLRSALPAGWFIADKSGAGERGSRGIIAALGPDGKPSRIVVIYTTGSQATMDERNRQIAEIGASLIKHW

> <PDB ID(s) of Target Chain>
1ERM,1ERO,1ERQ,1ESU,1FQG,1JTD,1JVJ,1JWP,1JWV,1LHY,1LI9,1M40,1NXY,1NY0,1NYM,1NYY,1PZO,1PZP,1S0W,1XPB,1YT4,2V1Z,2V20,3CMZ,3DTM,3JYI,3P98,4DXB,4DXC,4GKU,4ZJ2,5AQ8,5HVI,5HW1,5HW5,5NPO,6B2N,7QLP,7QNK,7U6Q,8DE0

> <UniProt (SwissProt) Recommended Name of Target Chain>
Beta-lactamase TEM

> <UniProt (SwissProt) Entry Name of Target Chain>
BLAT_ECOLX

> <UniProt (SwissProt) Primary ID of Target Chain>
P62593

> <UniProt (SwissProt) Secondary ID(s) of Target Chain>
P00810 Q47313

> <UniProt (SwissProt) Alternative ID(s) of Target Chain>


> <UniProt (TrEMBL) Submitted Name of Target Chain>


> <UniProt (TrEMBL) Entry Name of Target Chain>


> <UniProt (TrEMBL) Primary ID of Target Chain>


> <UniProt (TrEMBL) Secondary ID(s) of Target Chain>


> <UniProt (TrEMBL) Alternative ID(s) of Target Chain>


$$$$

  Mrv0541 01081602572D          

 22 23  0  0  0  0            999 V2000
    4.9648    1.7089    0.0000 C   0  0  1  0  0  0  0  0  0  0  0  0
    4.9648    0.8839    0.0000 B   0  0  0  0  0  0  0  0  0  0  0  0
    4.2503    2.1214    0.0000 N   0  0  0  0  0  0  0  0  0  0  0  0
    4.2503    0.4714    0.0000 O   0  0  0  0  0  0  0  0  0  0  0  0
    5.6793    0.4714    0.0000 O   0  0  0  0  0  0  0  0  0  0  0  0
    3.5359    1.7089    0.0000 C   0  0  0  0  0  0  0  0  0  0  0  0
    2.8214    2.1214    0.0000 C   0  0  0  0  0  0  0  0  0  0  0  0
    3.5359    0.8839    0.0000 O   0  0  0  0  0  0  0  0  0  0  0  0
    2.1069    1.7089    0.0000 C   0  0  0  0  0  0  0  0  0  0  0  0
    1.3532    2.0445    0.0000 S   0  0  0  0  0  0  0  0  0  0  0  0
    0.8012    1.4314    0.0000 C   0  0  0  0  0  0  0  0  0  0  0  0
    1.2137    0.7169    0.0000 C   0  0  0  0  0  0  0  0  0  0  0  0
    2.0207    0.8884    0.0000 C   0  0  0  0  0  0  0  0  0  0  0  0
    5.6793    2.1214    0.0000 C   0  0  0  0  0  0  0  0  0  0  0  0
    6.3938    1.7089    0.0000 N   0  0  0  0  0  0  0  0  0  0  0  0
    6.4800    0.8884    0.0000 C   0  0  0  0  0  0  0  0  0  0  0  0
    7.2869    0.7169    0.0000 C   0  0  0  0  0  0  0  0  0  0  0  0
    7.6994    1.4314    0.0000 N   0  0  0  0  0  0  0  0  0  0  0  0
    7.1474    2.0445    0.0000 N   0  0  0  0  0  0  0  0  0  0  0  0
    7.6225   -0.0368    0.0000 C   0  0  0  0  0  0  0  0  0  0  0  0
    8.4430   -0.1230    0.0000 O   0  0  0  0  0  0  0  0  0  0  0  0
    7.1376   -0.7042    0.0000 O   0  0  0  0  0  0  0  0  0  0  0  0
  1  2  1  1  0  0  0
  1  3  1  0  0  0  0
  2  4  1  0  0  0  0
  2  5  1  0  0  0  0
  3  6  1  0  0  0  0
  6  7  1  0  0  0  0
  6  8  2  0  0  0  0
  7  9  1  0  0  0  0
  9 10  4  0  0  0  0
  9 13  4  0  0  0  0
 10 11  4  0  0  0  0
 11 12  4  0  0  0  0
 12 13  4  0  0  0  0
  1 14  1  0  0  0  0
 14 15  1  0  0  0  0
 15 16  4  0  0  0  0
 15 19  4  0  0  0  0
 16 17  4  0  0  0  0
 17 18  4  0  0  0  0
 18 19  4  0  0  0  0
 17 20  1  0  0  0  0
 20 21  2  0  0  0  0
 20 22  1  0  0  0  0
M  END
> <From>
www.bindingDB.org

> <BindingDB Reactant_set_id>
293318

> <Ligand InChI>
InChI=1S/C11H13BN4O5S/c17-10(4-7-2-1-3-22-7)13-9(12(20)21)6-16-5-8(11(18)19)14-15-16/h1-3,5,9,20-21H,4,6H2,(H,13,17)(H,18,19)/t9-/m0/s1

> <Ligand InChI Key>
ZXGRTNOGXAKRBS-VIFPVBQESA-N

> <BindingDB MonomerID>
152695

> <BindingDB Ligand Name>
S02030

> <Target Name>
Beta-lactamase [24-383]

> <Target Source Organism According to Curator or DataSource>


> <Ki (nM)>
 44.5

> <IC50 (nM)>


> <Kd (nM)>
 590

> <EC50 (nM)>


> <kon (M-1-s-1)>


> <koff (s-1)>


> <pH>
7.4

> <Temp C>
25.00

> <Curation/DataSource>
Curated from the literature by BindingDB

> <Article DOI>
10.1021/bi500887n

> <BindingDB Entry DOI>
10.7270/Q2GM8614

> <PMID>
25380506

> <PubChem AID>
aid1801063

> <Patent Number>


> <Authors>
Powers, RA; Swanson, HC; Taracila, MA; Florek, NW; Romagnoli, C; Caselli, E; Prati, F; Bonomo, RA; Wallar, BJ

> <Institution>
Grand Valley State University

> <Link to Ligand in BindingDB>
http://www.bindingdb.org/bind/chemsearch/marvin/MolStructure.jsp?monomerid=152695

> <Link to Ligand-Target Pair in BindingDB>
http://www.bindingdb.org/jsp/dbsearch/PrimarySearch_ki.jsp?energyterm=kJ/mole&tag=pol&polymerid=6995&target=Beta-lactamase+%5B24-383%5D&column=ki&startPg=0&Increment=50&submit=Search

> <Link to Ligand-Target Pair in BindingDB>
http://www.bindingdb.org/jsp/dbsearch/PrimarySearch_ki.jsp?energyterm=kJ/mole&tag=r21&monomerid=152695&enzyme=Beta-lactamase+%5B24-383%5D&column=ki&startPg=0&Increment=50&submit=Search

> <Ligand HET ID in PDB>
ZXM

> <PDB ID(s) for Ligand-Target Complex>
5EE8,5EEC,4U0X,5ZYB

> <PubChem CID of Ligand>
71519576

> <PubChem SID of Ligand>
252826945

> <ChEBI ID of Ligand>


> <ChEMBL ID of Ligand>


> <DrugBank ID of Ligand>


> <IUPHAR_GRAC ID of Ligand>


> <KEGG ID of Ligand>


> <ZINC ID of Ligand>


> <Number of Protein Chains in Target (bigger than 1 implies a multichain complex)>
1

> <BindingDB Target Chain Sequence>
DNTPKDQEIKKLVDQNFKPLLEKYDVPGMAVGVIQNNKKYEMYYGLQSVQDKKAVNSNTIFELGSVSKLFTATAGGYAKNKGKISFDDTPGKYWKELKNTPIDQVNLLQLATYTSGNLALQFPDEVQTDQQVLTFFKDWKPKNPIGEYRQYSNPSIGLFGKVVALSMNKPFDQVLEKTIFPALGLKHSYVNVPKTQMQNYAFGYNQENQPIRVNPGPLDAPAYGVKSTLPDMLSFIHANLNPQKYPTDIQRAINETHQGRYQVNTMYQALGWEEFSYPATLQTLLDSNSEQIVMKPNKVTAISKEPSVKMYHKTGSTSGFGTYVVFIPKENIGLVMLTNKRIPNEERIKAAYVVLNAIKK

> <PDB ID(s) of Target Chain>
4U0T,4U0X,5W12,5W13,5W14,5WAC,5WAD,5WAE,5WAF,5WAG,6PWL,6PWM,6TZF,6TZG,6TZH,6TZI,6TZJ,6WIF,8FQM,8FQV,8FQW

> <UniProt (SwissProt) Recommended Name of Target Chain>


> <UniProt (SwissProt) Entry Name of Target Chain>


> <UniProt (SwissProt) Primary ID of Target Chain>


> <UniProt (SwissProt) Secondary ID(s) of Target Chain>


> <UniProt (SwissProt) Alternative ID(s) of Target Chain>


> <UniProt (TrEMBL) Submitted Name of Target Chain>
Beta-lactamase

> <UniProt (TrEMBL) Entry Name of Target Chain>
F0KJS2_ACICP

> <UniProt (TrEMBL) Primary ID of Target Chain>
F0KJS2

> <UniProt (TrEMBL) Secondary ID(s) of Target Chain>


> <UniProt (TrEMBL) Alternative ID(s) of Target Chain>


$$$$

  Mrv0541 11221409162D          

 23 25  0  0  0  0            999 V2000
   -0.9625    1.5228    0.0000 C   0  0  0  0  0  0  0  0  0  0  0  0
   -0.9637    0.7008    0.0000 C   0  0  0  0  0  0  0  0  0  0  0  0
   -0.2457    0.2886    0.0000 C   0  0  0  0  0  0  0  0  0  0  0  0
   -0.2475    1.9350    0.0000 C   0  0  0  0  0  0  0  0  0  0  0  0
    0.4626    1.5265    0.0000 C   0  0  0  0  0  0  0  0  0  0  0  0
    0.4629    0.7008    0.0000 C   0  0  0  0  0  0  0  0  0  0  0  0
    1.2481    0.4487    0.0000 S   0  0  0  0  0  0  0  0  0  0  0  0
    1.7274    1.1078    0.0000 C   0  0  0  0  0  0  0  0  0  0  0  0
    1.2476    1.7789    0.0000 C   0  0  0  0  0  0  0  0  0  0  0  0
    2.5512    1.1039    0.0000 B   0  0  0  0  0  0  0  0  0  0  0  0
    2.9633    0.3947    0.0000 O   0  0  0  0  0  0  0  0  0  0  0  0
    2.9628    1.8217    0.0000 O   0  0  0  0  0  0  0  0  0  0  0  0
   -1.6844    1.9387    0.0000 C   0  0  0  0  0  0  0  0  0  0  0  0
   -2.3960    1.5227    0.0000 N   0  0  0  0  0  0  0  0  0  0  0  0
   -3.1138    1.9302    0.0000 C   0  0  0  0  0  0  0  0  0  0  0  0
   -3.1170    2.7539    0.0000 C   0  0  0  0  0  0  0  0  0  0  0  0
   -3.8297    3.1660    0.0000 C   0  0  0  0  0  0  0  0  0  0  0  0
   -4.5564    2.7418    0.0000 C   0  0  0  0  0  0  0  0  0  0  0  0
   -4.5494    1.9179    0.0000 C   0  0  0  0  0  0  0  0  0  0  0  0
   -3.8279    1.5100    0.0000 C   0  0  0  0  0  0  0  0  0  0  0  0
   -5.2697    1.4950    0.0000 B   0  0  0  0  0  0  0  0  0  0  0  0
   -5.9888    1.9083    0.0000 O   0  0  0  0  0  0  0  0  0  0  0  0
   -5.2665    0.6712    0.0000 O   0  0  0  0  0  0  0  0  0  0  0  0
 10 11  1  0  0  0  0
 10 12  1  0  0  0  0
  2  3  1  0  0  0  0
  1 13  1  0  0  0  0
  3  6  2  0  0  0  0
 13 14  1  0  0  0  0
  1  2  2  0  0  0  0
 14 15  1  0  0  0  0
  5  4  2  0  0  0  0
 15 16  2  0  0  0  0
  6  7  1  0  0  0  0
 16 17  1  0  0  0  0
  7  8  1  0  0  0  0
 17 18  2  0  0  0  0
  8  9  2  0  0  0  0
 18 19  1  0  0  0  0
  9  5  1  0  0  0  0
 19 20  2  0  0  0  0
 20 15  1  0  0  0  0
  4  1  1  0  0  0  0
 19 21  1  0  0  0  0
  8 10  1  0  0  0  0
 21 22  1  0  0  0  0
  5  6  1  0  0  0  0
 21 23  1  0  0  0  0
M  END
> <From>
www.bindingDB.org

> <BindingDB Reactant_set_id>
50404432

> <Ligand InChI>
InChI=1S/C15H15B2NO4S/c19-16(20)12-2-1-3-13(8-12)18-9-10-4-5-14-11(6-10)7-15(23-14)17(21)22/h1-8,18-22H,9H2

> <Ligand InChI Key>
DDMLJZBFSFVMIE-UHFFFAOYSA-N

> <BindingDB MonomerID>
50225380

> <BindingDB Ligand Name>
CHEMBL235308::pinacol 5-[(phenylamino3-boronicacid)methyl]benzo[b]thiophen-2-ylboronate

> <Target Name>
Beta-lactamase TEM

> <Target Source Organism According to Curator or DataSource>


> <Ki (nM)>
 45

> <IC50 (nM)>


> <Kd (nM)>


> <EC50 (nM)>


> <kon (M-1-s-1)>


> <koff (s-1)>


> <pH>


> <Temp C>


> <Curation/DataSource>
ChEMBL

> <Article DOI>
10.1021/jm070643q

> <BindingDB Entry DOI>
10.7270/Q21N80W5

> <PMID>
17956081

> <PubChem AID>


> <Patent Number>


> <Authors>
Venturelli, A; Tondi, D; Cancian, L; Morandi, F; Cannazza, G; Segatore, B; Prati, F; Amicosante, G; Shoichet, BK; Costi, MP

> <Institution>
Universit&#224; degli Studi di Modena e Reggio Emilia

> <Link to Ligand in BindingDB>
http://www.bindingdb.org/bind/chemsearch/marvin/MolStructure.jsp?monomerid=50225380

> <Link to Ligand-Target Pair in BindingDB>
http://www.bindingdb.org/jsp/dbsearch/PrimarySearch_ki.jsp?energyterm=kJ/mole&tag=pol&polymerid=7704&target=Beta-lactamase+TEM&column=ki&startPg=0&Increment=50&submit=Search

> <Link to Ligand-Target Pair in BindingDB>
http://www.bindingdb.org/jsp/dbsearch/PrimarySearch_ki.jsp?energyterm=kJ/mole&tag=r21&monomerid=50225380&enzyme=Beta-lactamase+TEM&column=ki&startPg=0&Increment=50&submit=Search

> <Ligand HET ID in PDB>


> <PDB ID(s) for Ligand-Target Complex>


> <PubChem CID of Ligand>
23655685

> <PubChem SID of Ligand>
104096686

> <ChEBI ID of Ligand>


> <ChEMBL ID of Ligand>
CHEMBL235308

> <DrugBank ID of Ligand>


> <IUPHAR_GRAC ID of Ligand>


> <KEGG ID of Ligand>


> <ZINC ID of Ligand>


> <Number of Protein Chains in Target (bigger than 1 implies a multichain complex)>
1

> <BindingDB Target Chain Sequence>
MSIQHFRVALIPFFAAFCLPVFAHPETLVKVKDAEDQLGARVGYIELDLNSGKILESFRPEERFPMMSTFKVLLCGAVLSRVDAGQEQLGRRIHYSQNDLVEYSPVTEKHLTDGMTVRELCSAAITMSDNTAANLLLTTIGGPKELTAFLHNMGDHVTRLDRWEPELNEAIPNDERDTTMPAAMATTLRKLLTGELLTLASRQQLIDWMEADKVAGPLLRSALPAGWFIADKSGAGERGSRGIIAALGPDGKPSRIVVIYTTGSQATMDERNRQIAEIGASLIKHW

> <PDB ID(s) of Target Chain>
1ERM,1ERO,1ERQ,1ESU,1FQG,1JTD,1JVJ,1JWP,1JWV,1LHY,1LI9,1M40,1NXY,1NY0,1NYM,1NYY,1PZO,1PZP,1S0W,1XPB,1YT4,2V1Z,2V20,3CMZ,3DTM,3JYI,3P98,4DXB,4DXC,4GKU,4ZJ2,5AQ8,5HVI,5HW1,5HW5,5NPO,6B2N,7QLP,7QNK,7U6Q,8DE0

> <UniProt (SwissProt) Recommended Name of Target Chain>
Beta-lactamase TEM

> <UniProt (SwissProt) Entry Name of Target Chain>
BLAT_ECOLX

> <UniProt (SwissProt) Primary ID of Target Chain>
P62593

> <UniProt (SwissProt) Secondary ID(s) of Target Chain>
P00810 Q47313

> <UniProt (SwissProt) Alternative ID(s) of Target Chain>


> <UniProt (TrEMBL) Submitted Name of Target Chain>


> <UniProt (TrEMBL) Entry Name of Target Chain>


> <UniProt (TrEMBL) Primary ID of Target Chain>


> <UniProt (TrEMBL) Secondary ID(s) of Target Chain>


> <UniProt (TrEMBL) Alternative ID(s) of Target Chain>


$$$$

  Mrv0541 05171716542D          

 20 23  0  0  0  0            999 V2000
    1.0607    3.0589    0.0000 S   0  0  0  0  0  0  0  0  0  0  0  0
    0.3933    2.5740    0.0000 C   0  0  0  0  0  0  0  0  0  0  0  0
    0.6482    1.7894    0.0000 N   0  0  0  0  0  0  0  0  0  0  0  0
    1.4732    1.7894    0.0000 C   0  0  0  0  0  0  0  0  0  0  0  0
    1.7281    2.5740    0.0000 C   0  0  0  0  0  0  0  0  0  0  0  0
    0.3933    1.0048    0.0000 N   0  0  0  0  0  0  0  0  0  0  0  0
    1.0607    0.5199    0.0000 C   0  0  0  0  0  0  0  0  0  0  0  0
    1.7281    1.0048    0.0000 C   0  0  0  0  0  0  0  0  0  0  0  0
    1.0607   -0.3051    0.0000 C   0  0  0  0  0  0  0  0  0  0  0  0
    1.7751   -0.7176    0.0000 C   0  0  0  0  0  0  0  0  0  0  0  0
    1.7751   -1.5426    0.0000 C   0  0  0  0  0  0  0  0  0  0  0  0
    2.6001   -0.7176    0.0000 C   0  0  2  0  0  0  0  0  0  0  0  0
    2.6001   -1.5426    0.0000 N   0  0  0  0  0  0  0  0  0  0  0  0
    3.3847   -1.7976    0.0000 C   0  0  0  0  0  0  0  0  0  0  0  0
    3.8697   -1.1301    0.0000 C   0  0  0  0  0  0  0  0  0  0  0  0
    3.3848   -0.4627    0.0000 S   0  0  0  0  0  0  0  0  0  0  0  0
    1.1918   -2.1260    0.0000 O   0  0  0  0  0  0  0  0  0  0  0  0
    3.6396   -2.5822    0.0000 C   0  0  0  0  0  0  0  0  0  0  0  0
    4.4466   -2.7537    0.0000 O   0  0  0  0  0  0  0  0  0  0  0  0
    3.0876   -3.1953    0.0000 O   0  5  0  0  0  0  0  0  0  0  0  0
  1  2  1  0  0  0  0
  1  5  1  0  0  0  0
  2  3  1  0  0  0  0
  4  5  1  0  0  0  0
  3  6  4  0  0  0  0
  4  3  4  0  0  0  0
  4  8  4  0  0  0  0
  6  7  4  0  0  0  0
  7  8  4  0  0  0  0
  7  9  1  0  0  0  0
  9 10  2  0  0  0  0
 10 11  1  0  0  0  0
 12 10  1  0  0  0  0
 13 11  1  0  0  0  0
 12 16  1  0  0  0  0
 12 13  1  1  0  0  0
 13 14  1  0  0  0  0
 14 15  2  0  0  0  0
 15 16  1  0  0  0  0
 11 17  2  0  0  0  0
 14 18  1  0  0  0  0
 18 19  2  0  0  0  0
 18 20  1  0  0  0  0
M  CHG  1  20  -1
M  END
> <From>
www.bindingDB.org

> <BindingDB Reactant_set_id>
397439

> <Ligand InChI>
InChI=1S/C12H9N3O3S2/c16-10-8(11-15(10)9(4-20-11)12(17)18)2-6-1-7-3-19-5-14(7)13-6/h1-2,4,11H,3,5H2,(H,17,18)/p-1/b8-2-/t11-/m1/s1

> <Ligand InChI Key>
PIQJFYXOGLAPEL-GPWUBDCCSA-M

> <BindingDB MonomerID>
227598

> <BindingDB Ligand Name>
Penem 1

> <Target Name>
Beta-lactamase OXA-1

> <Target Source Organism According to Curator or DataSource>


> <Ki (nM)>
 50

> <IC50 (nM)>
 30

> <Kd (nM)>


> <EC50 (nM)>


> <kon (M-1-s-1)>


> <koff (s-1)>


> <pH>
7.2

> <Temp C>


> <Curation/DataSource>
Curated from the literature by BindingDB

> <Article DOI>
10.1074/jbc.M113.533562

> <BindingDB Entry DOI>
10.7270/Q2CN72SC

> <PMID>
24443569

> <PubChem AID>
aid1802793

> <Patent Number>


> <Authors>
Che, T; Bethel, CR; Pusztai-Carey, M; Bonomo, RA; Carey, PR

> <Institution>
Case Western Reserve University

> <Link to Ligand in BindingDB>
http://www.bindingdb.org/bind/chemsearch/marvin/MolStructure.jsp?monomerid=227598

> <Link to Ligand-Target Pair in BindingDB>
http://www.bindingdb.org/jsp/dbsearch/PrimarySearch_ki.jsp?energyterm=kJ/mole&tag=pol&polymerid=9753&target=Beta-lactamase+OXA-1&column=ki&startPg=0&Increment=50&submit=Search

> <Link to Ligand-Target Pair in BindingDB>
http://www.bindingdb.org/jsp/dbsearch/PrimarySearch_ki.jsp?energyterm=kJ/mole&tag=r21&monomerid=227598&enzyme=Beta-lactamase+OXA-1&column=ki&startPg=0&Increment=50&submit=Search

> <Ligand HET ID in PDB>


> <PDB ID(s) for Ligand-Target Complex>


> <PubChem CID of Ligand>
134612389

> <PubChem SID of Ligand>
374884575

> <ChEBI ID of Ligand>


> <ChEMBL ID of Ligand>


> <DrugBank ID of Ligand>


> <IUPHAR_GRAC ID of Ligand>


> <KEGG ID of Ligand>


> <ZINC ID of Ligand>


> <Number of Protein Chains in Target (bigger than 1 implies a multichain complex)>
1

> <BindingDB Target Chain Sequence>
MKNTIHINFAIFLIIANIIYSSASASTDISTVASPLFEGTEGCFLLYDASTNAEIAQFNKAKCATQMAPDSTFKIALSLMAFDAEIIDQKTIFKWDKTPKGMEIWNSNHTPKTWMQFSVVWVSQEITQKIGLNKIKNYLKDFDYGNQDFSGDKERNNGLTEAWLESSLKISPEEQIQFLRKIINHNLPVKNSAIENTIENMYLQDLDNSTKLYGKTGAGFTANRTLQNGWFEGFIISKSGHKYVFVSALTGNLGSNLTSSIKAKKNAITILNTLNL

> <PDB ID(s) of Target Chain>
1M6K,3ISG

> <UniProt (SwissProt) Recommended Name of Target Chain>
Beta-lactamase OXA-1

> <UniProt (SwissProt) Entry Name of Target Chain>
BLO1_ECOLX

> <UniProt (SwissProt) Primary ID of Target Chain>
P13661

> <UniProt (SwissProt) Secondary ID(s) of Target Chain>


> <UniProt (SwissProt) Alternative ID(s) of Target Chain>


> <UniProt (TrEMBL) Submitted Name of Target Chain>


> <UniProt (TrEMBL) Entry Name of Target Chain>


> <UniProt (TrEMBL) Primary ID of Target Chain>


> <UniProt (TrEMBL) Secondary ID(s) of Target Chain>


> <UniProt (TrEMBL) Alternative ID(s) of Target Chain>


$$$$

  Mrv0541 11191401012D          

 32 34  0  0  0  0            999 V2000
   -0.7396    1.4778    0.0000 C   0  0  0  0  0  0  0  0  0  0  0  0
   -1.5646    1.4778    0.0000 C   0  0  0  0  0  0  0  0  0  0  0  0
   -1.9771    2.1922    0.0000 C   0  0  0  0  0  0  0  0  0  0  0  0
   -1.5646    2.9067    0.0000 C   0  0  0  0  0  0  0  0  0  0  0  0
   -0.7396    2.9067    0.0000 C   0  0  0  0  0  0  0  0  0  0  0  0
   -0.3271    2.1922    0.0000 C   0  0  0  0  0  0  0  0  0  0  0  0
   -1.9771    3.6212    0.0000 B   0  0  0  0  0  0  0  0  0  0  0  0
   -2.8021    3.6212    0.0000 O   0  0  0  0  0  0  0  0  0  0  0  0
   -1.5646    4.3356    0.0000 O   0  0  0  0  0  0  0  0  0  0  0  0
    0.4979    2.1922    0.0000 N   0  0  0  0  0  0  0  0  0  0  0  0
    0.9104    1.4778    0.0000 S   0  0  0  0  0  0  0  0  0  0  0  0
    0.4979    0.7633    0.0000 O   0  0  0  0  0  0  0  0  0  0  0  0
    1.7354    1.4778    0.0000 C   0  0  0  0  0  0  0  0  0  0  0  0
    1.3229    2.1923    0.0000 O   0  0  0  0  0  0  0  0  0  0  0  0
    2.9729    2.1923    0.0000 C   0  0  0  0  0  0  0  0  0  0  0  0
    2.1479    2.1923    0.0000 C   0  0  0  0  0  0  0  0  0  0  0  0
    2.1479    0.7633    0.0000 C   0  0  0  0  0  0  0  0  0  0  0  0
    2.9729    0.7634    0.0000 C   0  0  0  0  0  0  0  0  0  0  0  0
    3.3854    1.4778    0.0000 C   0  0  0  0  0  0  0  0  0  0  0  0
    3.5563    0.1800    0.0000 S   0  0  0  0  0  0  0  0  0  0  0  0
    4.2707    0.5925    0.0000 N   0  0  0  0  0  0  0  0  0  0  0  0
    2.8418   -0.2325    0.0000 O   0  0  0  0  0  0  0  0  0  0  0  0
    4.1396   -0.4034    0.0000 O   0  0  0  0  0  0  0  0  0  0  0  0
    4.9852    0.1800    0.0000 C   0  0  0  0  0  0  0  0  0  0  0  0
    5.6997    0.5925    0.0000 C   0  0  0  0  0  0  0  0  0  0  0  0
    4.9852   -0.6450    0.0000 C   0  0  0  0  0  0  0  0  0  0  0  0
    5.6997   -1.0575    0.0000 C   0  0  0  0  0  0  0  0  0  0  0  0
    6.4141   -0.6450    0.0000 C   0  0  0  0  0  0  0  0  0  0  0  0
    6.4141    0.1800    0.0000 C   0  0  0  0  0  0  0  0  0  0  0  0
    5.6997   -1.8825    0.0000 B   0  0  0  0  0  0  0  0  0  0  0  0
    6.4141   -2.2950    0.0000 O   0  0  0  0  0  0  0  0  0  0  0  0
    4.9852   -2.2950    0.0000 O   0  0  0  0  0  0  0  0  0  0  0  0
  1  2  2  0  0  0  0
  2  3  1  0  0  0  0
  3  4  2  0  0  0  0
  4  5  1  0  0  0  0
  5  6  2  0  0  0  0
  1  6  1  0  0  0  0
  4  7  1  0  0  0  0
  7  8  1  0  0  0  0
  7  9  1  0  0  0  0
  6 10  1  0  0  0  0
 10 11  1  0  0  0  0
 11 12  2  0  0  0  0
 11 13  1  0  0  0  0
 11 14  2  0  0  0  0
 16 13  2  0  0  0  0
 13 17  1  0  0  0  0
 15 16  1  0  0  0  0
 17 18  2  0  0  0  0
 18 19  1  0  0  0  0
 15 19  2  0  0  0  0
 18 20  1  0  0  0  0
 20 21  1  0  0  0  0
 20 22  2  0  0  0  0
 20 23  2  0  0  0  0
 21 24  1  0  0  0  0
 25 24  2  0  0  0  0
 24 26  1  0  0  0  0
 26 27  2  0  0  0  0
 27 28  1  0  0  0  0
 28 29  2  0  0  0  0
 25 29  1  0  0  0  0
 27 30  1  0  0  0  0
 30 31  1  0  0  0  0
 30 32  1  0  0  0  0
M  END
> <From>
www.bindingDB.org

> <BindingDB Reactant_set_id>
74835

> <Ligand InChI>
InChI=1S/C18H18B2N2O8S2/c23-19(24)13-4-1-6-15(10-13)21-31(27,28)17-8-3-9-18(12-17)32(29,30)22-16-7-2-5-14(11-16)20(25)26/h1-12,21-26H

> <Ligand InChI Key>
BKZJNYNXBZSUPD-UHFFFAOYSA-N

> <BindingDB MonomerID>
39849

> <BindingDB Ligand Name>
Amide and sulfonamide derivatives, 33

> <Target Name>
Beta-lactamase

> <Target Source Organism According to Curator or DataSource>
Escherichia coli

> <Ki (nM)>
 6e+1

> <IC50 (nM)>


> <Kd (nM)>


> <EC50 (nM)>


> <kon (M-1-s-1)>


> <koff (s-1)>


> <pH>
7

> <Temp C>


> <Curation/DataSource>
Curated from the literature by BindingDB

> <Article DOI>
10.1016/S1074-5521(01)00034-5

> <BindingDB Entry DOI>
10.7270/Q27M06BZ

> <PMID>
11410378

> <PubChem AID>
aid1799472

> <Patent Number>


> <Authors>
Tondi, D; Powers, RA; Caselli, E; Negri, MC; Bl&aacute;zquez, J; Costi, MP; Shoichet, BK

> <Institution>
Northwestern University

> <Link to Ligand in BindingDB>
http://www.bindingdb.org/bind/chemsearch/marvin/MolStructure.jsp?monomerid=39849

> <Link to Ligand-Target Pair in BindingDB>
http://www.bindingdb.org/jsp/dbsearch/PrimarySearch_ki.jsp?energyterm=kJ/mole&tag=pol&polymerid=4401&target=Beta-lactamase&column=ki&startPg=0&Increment=50&submit=Search

> <Link to Ligand-Target Pair in BindingDB>
http://www.bindingdb.org/jsp/dbsearch/PrimarySearch_ki.jsp?energyterm=kJ/mole&tag=r21&monomerid=39849&enzyme=Beta-lactamase&column=ki&startPg=0&Increment=50&submit=Search

> <Ligand HET ID in PDB>


> <PDB ID(s) for Ligand-Target Complex>


> <PubChem CID of Ligand>
9804998

> <PubChem SID of Ligand>
123080157

> <ChEBI ID of Ligand>


> <ChEMBL ID of Ligand>


> <DrugBank ID of Ligand>


> <IUPHAR_GRAC ID of Ligand>


> <KEGG ID of Ligand>


> <ZINC ID of Ligand>


> <Number of Protein Chains in Target (bigger than 1 implies a multichain complex)>
1

> <BindingDB Target Chain Sequence>
MFKTTLCALLITASCSTFAAPQQINDIVHRTITPLIEQQKIPGMAVAVIYQGKPYYFTWGYADIAKKQPVTQQTLFELGSVSKTFTGVLGGDAIARGEIKLSDPTTKYWPELTAKQWNGITLLHLATYTAGGLPLQVPDEVKSSSDLLRFYQNWQPAWAPGTQRLYANSSIGLFGALAVKPSGLSFEQAMQTRVFQPLKLNHTWINVPPAEEKNYAWGYREGKAVHVSPGALDAEAYGVKSTIEDMARWVQSNLKPLDINEKTLQQGIQLAQSRYWQTGDMYQGLGWEMLDWPVNPDSIINGSDNKIALAARPVKAITPPTPAVRASWVHKTGATGGFGSYVAFIPEKELGIVMLANKNYPNPARVDAAWQILNALQ

> <PDB ID(s) of Target Chain>
1C3B,1FCO,1FSW,1FSY,1GA9,1IEL,1IEM,1KDS,1KDW,1KE0,1KE3,1KE4,1KVM,1L2S,1LL5,1LL9,1LLB,1MXO,1MY8,1XGI,1XGJ,2BLS,2HDQ,2HDR,2HDS,2HDU,2I72,2P9V,2PU2,2PU4,2R9W,2R9X,2RCX,3BLS,3BM6,3GQZ,3GR2,3GRJ,3GSG,3GTC,3GV9,3GVB,3O86,3O87,3O88,4E3I,4E3J,4E3K,4E3L,4E3M,4E3N,4E3O,4JXG,4JXS,4JXV,4JXW,4KG2,4KZ3,4KZ4,4KZ5,4KZ6,4KZ7,4KZ8,4KZ9,4KZA,4KZB,4LV0,4LV1,4LV2,4LV3,4OKP,4OLD,4OLG,6DPT,6DPX,6DPY,6DPZ,6T35,6T3D,6T5Y,6T7L,6TBW,6TPM,6WGQ,6YEN,6YEO,6YPD

> <UniProt (SwissProt) Recommended Name of Target Chain>
Beta-lactamase

> <UniProt (SwissProt) Entry Name of Target Chain>
AMPC_ECOLI

> <UniProt (SwissProt) Primary ID of Target Chain>
P00811

> <UniProt (SwissProt) Secondary ID(s) of Target Chain>
Q2M6F2

> <UniProt (SwissProt) Alternative ID(s) of Target Chain>


> <UniProt (TrEMBL) Submitted Name of Target Chain>


> <UniProt (TrEMBL) Entry Name of Target Chain>


> <UniProt (TrEMBL) Primary ID of Target Chain>


> <UniProt (TrEMBL) Secondary ID(s) of Target Chain>


> <UniProt (TrEMBL) Alternative ID(s) of Target Chain>


$$$$
 
  Mrv0541 11231401072D          

 20 21  0  0  0  0            999 V2000
   -3.7812   -6.4715    0.0000 C   0  0  0  0  0  0  0  0  0  0  0  0
   -3.7812   -7.2965    0.0000 C   0  0  1  0  0  0  0  0  0  0  0  0
   -2.9562   -6.4715    0.0000 N   0  0  0  0  0  0  0  0  0  0  0  0
   -2.9517   -7.2965    0.0000 C   0  0  2  0  0  0  0  0  0  0  0  0
   -2.1658   -7.5472    0.0000 C   0  0  0  0  0  0  0  0  0  0  0  0
   -1.6844   -6.8771    0.0000 C   0  0  0  0  0  0  0  0  0  0  0  0
   -2.1736   -6.2133    0.0000 C   0  0  0  0  0  0  0  0  0  0  0  0
   -0.8594   -6.8726    0.0000 S   0  0  0  0  0  0  0  0  0  0  0  0
   -1.7573   -5.5009    0.0000 C   0  0  0  0  0  0  0  0  0  0  0  0
   -0.9303   -5.5027    0.0000 O   0  0  0  0  0  0  0  0  0  0  0  0
   -2.1640   -4.7817    0.0000 O   0  0  0  0  0  0  0  0  0  0  0  0
   -4.3646   -5.8882    0.0000 O   0  0  0  0  0  0  0  0  0  0  0  0
   -4.4966   -7.7108    0.0000 C   0  0  1  0  0  0  0  0  0  0  0  0
   -5.2115   -7.2989    0.0000 C   0  0  0  0  0  0  0  0  0  0  0  0
   -4.4957   -8.5358    0.0000 O   0  0  0  0  0  0  0  0  0  0  0  0
   -0.4431   -7.5847    0.0000 C   0  0  0  0  0  0  0  0  0  0  0  0
    0.3819   -7.5802    0.0000 C   0  0  0  0  0  0  0  0  0  0  0  0
    0.7984   -8.2923    0.0000 N   0  0  0  0  0  0  0  0  0  0  0  0
    1.6234   -8.2878    0.0000 C   0  0  0  0  0  0  0  0  0  0  0  0
    2.0398   -9.0000    0.0000 N   0  0  0  0  0  0  0  0  0  0  0  0
  9 10  1  0  0  0  0
  9 11  2  0  0  0  0
  4  3  1  6  0  0  0
  1 12  2  0  0  0  0
  4  5  1  0  0  0  0
  5  6  1  0  0  0  0
  2 13  1  1  0  0  0
  6  7  2  0  0  0  0
 13 14  1  0  0  0  0
  7  3  1  0  0  0  0
 13 15  1  6  0  0  0
  8 16  1  0  0  0  0
  6  8  1  0  0  0  0
 16 17  1  0  0  0  0
  2  1  1  0  0  0  0
 17 18  1  0  0  0  0
  7  9  1  0  0  0  0
 18 19  2  0  0  0  0
  2  4  1  0  0  0  0
 19 20  1  4  0  0  0
  3  1  1  0  0  0  0
M  END
> <From>
www.bindingDB.org

> <BindingDB Reactant_set_id>
50382887

> <Ligand InChI>
InChI=1S/C12H17N3O4S/c1-6(16)9-7-4-8(20-3-2-14-5-13)10(12(18)19)15(7)11(9)17/h5-7,9,16H,2-4H2,1H3,(H2,13,14)(H,18,19)/t6-,7-,9-/m1/s1

> <Ligand InChI Key>
ZSKVGTPCRGIANV-ZXFLCMHBSA-N

> <BindingDB MonomerID>
50049708

> <BindingDB Ligand Name>
CHEMBL148::IMIPENEM

> <Target Name>
Beta-lactamase

> <Target Source Organism According to Curator or DataSource>
Citrobacter freundii

> <Ki (nM)>
 60

> <IC50 (nM)>


> <Kd (nM)>


> <EC50 (nM)>


> <kon (M-1-s-1)>


> <koff (s-1)>


> <pH>


> <Temp C>


> <Curation/DataSource>
ChEMBL

> <Article DOI>
10.1128/AAC.01395-06

> <BindingDB Entry DOI>
10.7270/Q24X57J4

> <PMID>
17438050

> <PubChem AID>


> <Patent Number>


> <Authors>
Power, P; Di Conza, J; Rodriguez, MM; Ghiglione, B; Ayala, JA; Casellas, JM; Radice, M; Gutkind, G

> <Institution>
Universidad de Buenos Aires

> <Link to Ligand in BindingDB>
http://www.bindingdb.org/bind/chemsearch/marvin/MolStructure.jsp?monomerid=50049708

> <Link to Ligand-Target Pair in BindingDB>
http://www.bindingdb.org/jsp/dbsearch/PrimarySearch_ki.jsp?energyterm=kJ/mole&tag=pol&polymerid=50003889&target=Beta-lactamase&column=ki&startPg=0&Increment=50&submit=Search

> <Link to Ligand-Target Pair in BindingDB>
http://www.bindingdb.org/jsp/dbsearch/PrimarySearch_ki.jsp?energyterm=kJ/mole&tag=r21&monomerid=50049708&enzyme=Beta-lactamase&column=ki&startPg=0&Increment=50&submit=Search

> <Ligand HET ID in PDB>


> <PDB ID(s) for Ligand-Target Complex>


> <PubChem CID of Ligand>
104838

> <PubChem SID of Ligand>
103980020

> <ChEBI ID of Ligand>
471744

> <ChEMBL ID of Ligand>
CHEMBL148

> <DrugBank ID of Ligand>


> <IUPHAR_GRAC ID of Ligand>


> <KEGG ID of Ligand>


> <ZINC ID of Ligand>
ZINC04097225

> <Number of Protein Chains in Target (bigger than 1 implies a multichain complex)>
1

> <BindingDB Target Chain Sequence>
MNVITKCVFTASALLMLGLSSFVVSAQSPLLKEQIETIVTGKKATVGVAVWGPDDLEPLLLNPFEKFPMQSVFKLHLAMLVLHQVDQGKLDLNQSVTVNRAAVLQNTWSPMMKDHQGDEFTVAVQQLLQYSVSHSDNVACDLLFELVGGPQALHAYIQSLGVKEAAVVANEAQMHADDQVQYQNWTSMKAAAQVLQKFEQKKQLSETSQALLWKWMVETTTGPQRLKGLLPAGTIVAHKTGTSGVRAGKTAATNDAGVIMLPDGRPLLVAVFVKDSAESERTNEAIIAQVAQAAYQFELKKLSAVSPD

> <PDB ID(s) of Target Chain>
4D2O,6D3G,6DGU

> <UniProt (SwissProt) Recommended Name of Target Chain>


> <UniProt (SwissProt) Entry Name of Target Chain>


> <UniProt (SwissProt) Primary ID of Target Chain>


> <UniProt (SwissProt) Secondary ID(s) of Target Chain>


> <UniProt (SwissProt) Alternative ID(s) of Target Chain>


> <UniProt (TrEMBL) Submitted Name of Target Chain>
Beta-lactamase

> <UniProt (TrEMBL) Entry Name of Target Chain>
A2RP81_CITFR

> <UniProt (TrEMBL) Primary ID of Target Chain>
A2RP81

> <UniProt (TrEMBL) Secondary ID(s) of Target Chain>


> <UniProt (TrEMBL) Alternative ID(s) of Target Chain>


$$$$

  Mrv0541 11191401012D          

 26 26  0  0  0  0            999 V2000
   -2.0921    2.6815    0.0000 C   0  0  0  0  0  0  0  0  0  0  0  0
   -1.3776    3.0940    0.0000 C   0  0  0  0  0  0  0  0  0  0  0  0
   -0.6630    2.6815    0.0000 N   0  0  0  0  0  0  0  0  0  0  0  0
   -1.3776    3.9191    0.0000 O   0  0  0  0  0  0  0  0  0  0  0  0
    0.0514    3.0940    0.0000 C   0  0  0  0  0  0  0  0  0  0  0  0
    0.7660    2.6815    0.0000 B   0  0  0  0  0  0  0  0  0  0  0  0
    1.4805    3.0940    0.0000 O   0  0  0  0  0  0  0  0  0  0  0  0
    0.7660    1.8564    0.0000 O   0  0  0  0  0  0  0  0  0  0  0  0
   -2.8066    3.0940    0.0000 C   0  0  0  0  0  0  0  0  0  0  0  0
   -2.0921    1.8564    0.0000 N   0  0  0  0  0  0  0  0  0  0  0  0
   -3.7987    3.9872    0.0000 S   0  0  0  0  0  0  0  0  0  0  0  0
   -4.1343    3.2335    0.0000 C   0  0  0  0  0  0  0  0  0  0  0  0
   -3.5211    2.6814    0.0000 N   0  0  0  0  0  0  0  0  0  0  0  0
   -2.9782    3.9010    0.0000 C   0  0  0  0  0  0  0  0  0  0  0  0
   -4.9412    3.0619    0.0000 S   0  0  0  0  0  0  0  0  0  0  0  0
   -2.8066    1.4439    0.0000 O   0  0  0  0  0  0  0  0  0  0  0  0
   -2.8066    0.6188    0.0000 C   0  0  0  0  0  0  0  0  0  0  0  0
   -2.1951    1.0608    0.0000 C   0  0  0  0  0  0  0  0  0  0  0  0
   -2.0921    0.2063    0.0000 C   0  0  0  0  0  0  0  0  0  0  0  0
   -2.8066   -0.2062    0.0000 C   0  0  0  0  0  0  0  0  0  0  0  0
   -2.0921   -0.6187    0.0000 O   0  0  0  0  0  0  0  0  0  0  0  0
   -3.5211   -0.6187    0.0000 O   0  0  0  0  0  0  0  0  0  0  0  0
   -4.2357   -0.2062    0.0000 C   0  0  0  0  0  0  0  0  0  0  0  0
   -4.9501   -0.6187    0.0000 C   0  0  0  0  0  0  0  0  0  0  0  0
   -4.2357    0.6188    0.0000 C   0  0  0  0  0  0  0  0  0  0  0  0
   -4.9501    0.2063    0.0000 C   0  0  0  0  0  0  0  0  0  0  0  0
  1  2  1  0  0  0  0
  2  3  1  0  0  0  0
  2  4  2  0  0  0  0
  3  5  1  0  0  0  0
  5  6  1  0  0  0  0
  6  7  1  0  0  0  0
  6  8  1  0  0  0  0
  1  9  1  0  0  0  0
  1 10  2  0  0  0  0
 13  9  1  0  0  0  0
  9 14  2  0  0  0  0
 11 12  1  0  0  0  0
 12 13  2  0  0  0  0
 11 14  1  0  0  0  0
 12 15  1  0  0  0  0
 10 16  1  0  0  0  0
 16 17  1  0  0  0  0
 17 18  1  0  0  0  0
 17 19  1  0  0  0  0
 17 20  1  0  0  0  0
 20 21  2  0  0  0  0
 20 22  1  0  0  0  0
 22 23  1  0  0  0  0
 23 24  1  0  0  0  0
 23 25  1  0  0  0  0
 23 26  1  0  0  0  0
M  END
> <From>
www.bindingDB.org

> <BindingDB Reactant_set_id>
74791

> <Ligand InChI>
InChI=1S/C14H22BN3O6S2/c1-13(2,3)23-11(20)14(4,5)24-18-9(8-6-26-12(25)17-8)10(19)16-7-15(21)22/h6,21-22H,7H2,1-5H3,(H,16,19)(H,17,25)/b18-9+

> <Ligand InChI Key>
RYMDIZHYVJLHBH-GIJQJNRQSA-N

> <BindingDB MonomerID>
39815

> <BindingDB Ligand Name>
Acylglycineboronic acid, 14

> <Target Name>
Beta-lactamase

> <Target Source Organism According to Curator or DataSource>
Escherichia coli

> <Ki (nM)>
 70

> <IC50 (nM)>


> <Kd (nM)>


> <EC50 (nM)>


> <kon (M-1-s-1)>


> <koff (s-1)>


> <pH>
7

> <Temp C>


> <Curation/DataSource>
Curated from the literature by BindingDB

> <Article DOI>
10.1016/S1074-5521(00)00052-1

> <BindingDB Entry DOI>
10.7270/Q2CC0Z3R

> <PMID>
11182316

> <PubChem AID>
aid1799471

> <Patent Number>


> <Authors>
Caselli, E; Powers, RA; Blasczcak, LC; Wu, CY; Prati, F; Shoichet, BK

> <Institution>
Northwestern University

> <Link to Ligand in BindingDB>
http://www.bindingdb.org/bind/chemsearch/marvin/MolStructure.jsp?monomerid=39815

> <Link to Ligand-Target Pair in BindingDB>
http://www.bindingdb.org/jsp/dbsearch/PrimarySearch_ki.jsp?energyterm=kJ/mole&tag=pol&polymerid=4401&target=Beta-lactamase&column=ki&startPg=0&Increment=50&submit=Search

> <Link to Ligand-Target Pair in BindingDB>
http://www.bindingdb.org/jsp/dbsearch/PrimarySearch_ki.jsp?energyterm=kJ/mole&tag=r21&monomerid=39815&enzyme=Beta-lactamase&column=ki&startPg=0&Increment=50&submit=Search

> <Ligand HET ID in PDB>


> <PDB ID(s) for Ligand-Target Complex>


> <PubChem CID of Ligand>
52939988

> <PubChem SID of Ligand>
123080123

> <ChEBI ID of Ligand>


> <ChEMBL ID of Ligand>


> <DrugBank ID of Ligand>


> <IUPHAR_GRAC ID of Ligand>


> <KEGG ID of Ligand>


> <ZINC ID of Ligand>


> <Number of Protein Chains in Target (bigger than 1 implies a multichain complex)>
1

> <BindingDB Target Chain Sequence>
MFKTTLCALLITASCSTFAAPQQINDIVHRTITPLIEQQKIPGMAVAVIYQGKPYYFTWGYADIAKKQPVTQQTLFELGSVSKTFTGVLGGDAIARGEIKLSDPTTKYWPELTAKQWNGITLLHLATYTAGGLPLQVPDEVKSSSDLLRFYQNWQPAWAPGTQRLYANSSIGLFGALAVKPSGLSFEQAMQTRVFQPLKLNHTWINVPPAEEKNYAWGYREGKAVHVSPGALDAEAYGVKSTIEDMARWVQSNLKPLDINEKTLQQGIQLAQSRYWQTGDMYQGLGWEMLDWPVNPDSIINGSDNKIALAARPVKAITPPTPAVRASWVHKTGATGGFGSYVAFIPEKELGIVMLANKNYPNPARVDAAWQILNALQ

> <PDB ID(s) of Target Chain>
1C3B,1FCO,1FSW,1FSY,1GA9,1IEL,1IEM,1KDS,1KDW,1KE0,1KE3,1KE4,1KVM,1L2S,1LL5,1LL9,1LLB,1MXO,1MY8,1XGI,1XGJ,2BLS,2HDQ,2HDR,2HDS,2HDU,2I72,2P9V,2PU2,2PU4,2R9W,2R9X,2RCX,3BLS,3BM6,3GQZ,3GR2,3GRJ,3GSG,3GTC,3GV9,3GVB,3O86,3O87,3O88,4E3I,4E3J,4E3K,4E3L,4E3M,4E3N,4E3O,4JXG,4JXS,4JXV,4JXW,4KG2,4KZ3,4KZ4,4KZ5,4KZ6,4KZ7,4KZ8,4KZ9,4KZA,4KZB,4LV0,4LV1,4LV2,4LV3,4OKP,4OLD,4OLG,6DPT,6DPX,6DPY,6DPZ,6T35,6T3D,6T5Y,6T7L,6TBW,6TPM,6WGQ,6YEN,6YEO,6YPD

> <UniProt (SwissProt) Recommended Name of Target Chain>
Beta-lactamase

> <UniProt (SwissProt) Entry Name of Target Chain>
AMPC_ECOLI

> <UniProt (SwissProt) Primary ID of Target Chain>
P00811

> <UniProt (SwissProt) Secondary ID(s) of Target Chain>
Q2M6F2

> <UniProt (SwissProt) Alternative ID(s) of Target Chain>


> <UniProt (TrEMBL) Submitted Name of Target Chain>


> <UniProt (TrEMBL) Entry Name of Target Chain>


> <UniProt (TrEMBL) Primary ID of Target Chain>


> <UniProt (TrEMBL) Secondary ID(s) of Target Chain>


> <UniProt (TrEMBL) Alternative ID(s) of Target Chain>


$$$$

  Mrv0541 11211411482D          

 27 29  0  0  0  0            999 V2000
    4.1375   -2.2750    0.0000 S   0  0  0  0  0  0  0  0  0  0  0  0
    4.5375   -0.1667    0.0000 C   0  0  0  0  0  0  0  0  0  0  0  0
    5.1167    0.4208    0.0000 S   0  0  0  0  0  0  0  0  0  0  0  0
    4.1375   -1.4417    0.0000 C   0  0  0  0  0  0  0  0  0  0  0  0
    4.7917   -0.9542    0.0000 C   0  0  0  0  0  0  0  0  0  0  0  0
    3.4625   -0.9625    0.0000 S   0  0  0  0  0  0  0  0  0  0  0  0
    3.7125   -0.1750    0.0000 C   0  0  0  0  0  0  0  0  0  0  0  0
    3.3125   -2.2750    0.0000 N   0  0  0  0  0  0  0  0  0  0  0  0
    0.6750   -3.5792    0.0000 B   0  0  0  0  0  0  0  0  0  0  0  0
    1.5000   -3.5792    0.0000 C   0  0  0  0  0  0  0  0  0  0  0  0
    4.9625   -2.2750    0.0000 O   0  0  0  0  0  0  0  0  0  0  0  0
    4.1375   -3.1000    0.0000 O   0  0  0  0  0  0  0  0  0  0  0  0
    1.9042   -2.8667    0.0000 C   0  0  0  0  0  0  0  0  0  0  0  0
    5.5250   -0.2917    0.0000 O   0  0  0  0  0  0  0  0  0  0  0  0
    5.7000    1.0083    0.0000 O   0  0  0  0  0  0  0  0  0  0  0  0
    4.5292    1.0083    0.0000 C   0  0  0  0  0  0  0  0  0  0  0  0
    2.7292   -2.8625    0.0000 C   0  0  0  0  0  0  0  0  0  0  0  0
    0.2542   -2.8625    0.0000 O   0  0  0  0  0  0  0  0  0  0  0  0
    0.0875   -4.1625    0.0000 O   0  0  0  0  0  0  0  0  0  0  0  0
    1.9042   -4.2875    0.0000 C   0  0  0  0  0  0  0  0  0  0  0  0
    2.7292   -4.2875    0.0000 C   0  0  0  0  0  0  0  0  0  0  0  0
    3.1417   -3.5750    0.0000 C   0  0  0  0  0  0  0  0  0  0  0  0
    3.7292    0.7958    0.0000 C   0  0  0  0  0  0  0  0  0  0  0  0
    4.7500    1.8083    0.0000 C   0  0  0  0  0  0  0  0  0  0  0  0
    4.1625    2.3958    0.0000 C   0  0  0  0  0  0  0  0  0  0  0  0
    3.1417    1.3750    0.0000 C   0  0  0  0  0  0  0  0  0  0  0  0
    3.3542    2.1833    0.0000 C   0  0  0  0  0  0  0  0  0  0  0  0
  2  5  1  0  0  0  0
  3  2  1  0  0  0  0
  4  1  1  0  0  0  0
  5  4  2  0  0  0  0
  6  4  1  0  0  0  0
  7  6  1  0  0  0  0
  8  1  1  0  0  0  0
  9 10  1  0  0  0  0
 10 13  2  0  0  0  0
 11  1  2  0  0  0  0
 12  1  2  0  0  0  0
 13 17  1  0  0  0  0
 14  3  2  0  0  0  0
 15  3  2  0  0  0  0
 16  3  1  0  0  0  0
 17  8  1  0  0  0  0
 18  9  1  0  0  0  0
 19  9  1  0  0  0  0
 20 21  2  0  0  0  0
 21 22  1  0  0  0  0
 22 17  2  0  0  0  0
 23 16  2  0  0  0  0
 24 16  1  0  0  0  0
 25 24  2  0  0  0  0
 26 23  1  0  0  0  0
 27 25  1  0  0  0  0
  7  2  2  0  0  0  0
 20 10  1  0  0  0  0
 26 27  2  0  0  0  0
M  END
> <From>
www.bindingDB.org

> <BindingDB Reactant_set_id>
50275070

> <Ligand InChI>
InChI=1S/C16H14BNO6S3/c19-17(20)12-5-4-6-13(9-12)18-27(23,24)16-10-15(11-25-16)26(21,22)14-7-2-1-3-8-14/h1-11,18-20H

> <Ligand InChI Key>
YZOKHYPIQNIFRQ-UHFFFAOYSA-N

> <BindingDB MonomerID>
50115616

> <BindingDB Ligand Name>
3-(4-BENZENESULFONYL-THIOPHENE-2-SULFONYLAMINO)-PHENYLBORONIC ACID::4-Benzenesulfonyl-thiophene-2-sulfonic acid (3-dihydroxyboranyl-phenyl)-amide::Amide and sulfonamide derivatives, 2::Aza-boronic acid derivative::CHEMBL113381

> <Target Name>
Beta-lactamase

> <Target Source Organism According to Curator or DataSource>
Escherichia coli

> <Ki (nM)>
 80

> <IC50 (nM)>


> <Kd (nM)>


> <EC50 (nM)>


> <kon (M-1-s-1)>


> <koff (s-1)>


> <pH>


> <Temp C>


> <Curation/DataSource>
ChEMBL

> <Article DOI>
10.1016/j.bmcl.2004.05.054

> <BindingDB Entry DOI>
10.7270/Q2XW4J8P

> <PMID>
15225711

> <PubChem AID>


> <Patent Number>


> <Authors>
Buzzoni, V; Blazquez, J; Ferrari, S; Calo, S; Venturelli, A; Costi, MP

> <Institution>
Universit&#224; degli Studi di Modena e Reggio Emilia

> <Link to Ligand in BindingDB>
http://www.bindingdb.org/bind/chemsearch/marvin/MolStructure.jsp?monomerid=50115616

> <Link to Ligand-Target Pair in BindingDB>
http://www.bindingdb.org/jsp/dbsearch/PrimarySearch_ki.jsp?energyterm=kJ/mole&tag=pol&polymerid=4401&target=Beta-lactamase&column=ki&startPg=0&Increment=50&submit=Search

> <Link to Ligand-Target Pair in BindingDB>
http://www.bindingdb.org/jsp/dbsearch/PrimarySearch_ki.jsp?energyterm=kJ/mole&tag=r21&monomerid=50115616&enzyme=Beta-lactamase&column=ki&startPg=0&Increment=50&submit=Search

> <Ligand HET ID in PDB>
ETP

> <PDB ID(s) for Ligand-Target Complex>
1GA9

> <PubChem CID of Ligand>
1475

> <PubChem SID of Ligand>
104009505

> <ChEBI ID of Ligand>


> <ChEMBL ID of Ligand>
CHEMBL113381

> <DrugBank ID of Ligand>
DB02858

> <IUPHAR_GRAC ID of Ligand>


> <KEGG ID of Ligand>


> <ZINC ID of Ligand>


> <Number of Protein Chains in Target (bigger than 1 implies a multichain complex)>
1

> <BindingDB Target Chain Sequence>
MFKTTLCALLITASCSTFAAPQQINDIVHRTITPLIEQQKIPGMAVAVIYQGKPYYFTWGYADIAKKQPVTQQTLFELGSVSKTFTGVLGGDAIARGEIKLSDPTTKYWPELTAKQWNGITLLHLATYTAGGLPLQVPDEVKSSSDLLRFYQNWQPAWAPGTQRLYANSSIGLFGALAVKPSGLSFEQAMQTRVFQPLKLNHTWINVPPAEEKNYAWGYREGKAVHVSPGALDAEAYGVKSTIEDMARWVQSNLKPLDINEKTLQQGIQLAQSRYWQTGDMYQGLGWEMLDWPVNPDSIINGSDNKIALAARPVKAITPPTPAVRASWVHKTGATGGFGSYVAFIPEKELGIVMLANKNYPNPARVDAAWQILNALQ

> <PDB ID(s) of Target Chain>
1C3B,1FCO,1FSW,1FSY,1GA9,1IEL,1IEM,1KDS,1KDW,1KE0,1KE3,1KE4,1KVM,1L2S,1LL5,1LL9,1LLB,1MXO,1MY8,1XGI,1XGJ,2BLS,2HDQ,2HDR,2HDS,2HDU,2I72,2P9V,2PU2,2PU4,2R9W,2R9X,2RCX,3BLS,3BM6,3GQZ,3GR2,3GRJ,3GSG,3GTC,3GV9,3GVB,3O86,3O87,3O88,4E3I,4E3J,4E3K,4E3L,4E3M,4E3N,4E3O,4JXG,4JXS,4JXV,4JXW,4KG2,4KZ3,4KZ4,4KZ5,4KZ6,4KZ7,4KZ8,4KZ9,4KZA,4KZB,4LV0,4LV1,4LV2,4LV3,4OKP,4OLD,4OLG,6DPT,6DPX,6DPY,6DPZ,6T35,6T3D,6T5Y,6T7L,6TBW,6TPM,6WGQ,6YEN,6YEO,6YPD

> <UniProt (SwissProt) Recommended Name of Target Chain>
Beta-lactamase

> <UniProt (SwissProt) Entry Name of Target Chain>
AMPC_ECOLI

> <UniProt (SwissProt) Primary ID of Target Chain>
P00811

> <UniProt (SwissProt) Secondary ID(s) of Target Chain>
Q2M6F2

> <UniProt (SwissProt) Alternative ID(s) of Target Chain>


> <UniProt (TrEMBL) Submitted Name of Target Chain>


> <UniProt (TrEMBL) Entry Name of Target Chain>


> <UniProt (TrEMBL) Primary ID of Target Chain>


> <UniProt (TrEMBL) Secondary ID(s) of Target Chain>


> <UniProt (TrEMBL) Alternative ID(s) of Target Chain>


$$$$

  Mrv0541 11211411482D          

 27 29  0  0  0  0            999 V2000
    4.1375   -2.2750    0.0000 S   0  0  0  0  0  0  0  0  0  0  0  0
    4.5375   -0.1667    0.0000 C   0  0  0  0  0  0  0  0  0  0  0  0
    5.1167    0.4208    0.0000 S   0  0  0  0  0  0  0  0  0  0  0  0
    4.1375   -1.4417    0.0000 C   0  0  0  0  0  0  0  0  0  0  0  0
    4.7917   -0.9542    0.0000 C   0  0  0  0  0  0  0  0  0  0  0  0
    3.4625   -0.9625    0.0000 S   0  0  0  0  0  0  0  0  0  0  0  0
    3.7125   -0.1750    0.0000 C   0  0  0  0  0  0  0  0  0  0  0  0
    3.3125   -2.2750    0.0000 N   0  0  0  0  0  0  0  0  0  0  0  0
    0.6750   -3.5792    0.0000 B   0  0  0  0  0  0  0  0  0  0  0  0
    1.5000   -3.5792    0.0000 C   0  0  0  0  0  0  0  0  0  0  0  0
    4.9625   -2.2750    0.0000 O   0  0  0  0  0  0  0  0  0  0  0  0
    4.1375   -3.1000    0.0000 O   0  0  0  0  0  0  0  0  0  0  0  0
    1.9042   -2.8667    0.0000 C   0  0  0  0  0  0  0  0  0  0  0  0
    5.5250   -0.2917    0.0000 O   0  0  0  0  0  0  0  0  0  0  0  0
    5.7000    1.0083    0.0000 O   0  0  0  0  0  0  0  0  0  0  0  0
    4.5292    1.0083    0.0000 C   0  0  0  0  0  0  0  0  0  0  0  0
    2.7292   -2.8625    0.0000 C   0  0  0  0  0  0  0  0  0  0  0  0
    0.2542   -2.8625    0.0000 O   0  0  0  0  0  0  0  0  0  0  0  0
    0.0875   -4.1625    0.0000 O   0  0  0  0  0  0  0  0  0  0  0  0
    1.9042   -4.2875    0.0000 C   0  0  0  0  0  0  0  0  0  0  0  0
    2.7292   -4.2875    0.0000 C   0  0  0  0  0  0  0  0  0  0  0  0
    3.1417   -3.5750    0.0000 C   0  0  0  0  0  0  0  0  0  0  0  0
    3.7292    0.7958    0.0000 C   0  0  0  0  0  0  0  0  0  0  0  0
    4.7500    1.8083    0.0000 C   0  0  0  0  0  0  0  0  0  0  0  0
    4.1625    2.3958    0.0000 C   0  0  0  0  0  0  0  0  0  0  0  0
    3.1417    1.3750    0.0000 C   0  0  0  0  0  0  0  0  0  0  0  0
    3.3542    2.1833    0.0000 C   0  0  0  0  0  0  0  0  0  0  0  0
  2  5  1  0  0  0  0
  3  2  1  0  0  0  0
  4  1  1  0  0  0  0
  5  4  2  0  0  0  0
  6  4  1  0  0  0  0
  7  6  1  0  0  0  0
  8  1  1  0  0  0  0
  9 10  1  0  0  0  0
 10 13  2  0  0  0  0
 11  1  2  0  0  0  0
 12  1  2  0  0  0  0
 13 17  1  0  0  0  0
 14  3  2  0  0  0  0
 15  3  2  0  0  0  0
 16  3  1  0  0  0  0
 17  8  1  0  0  0  0
 18  9  1  0  0  0  0
 19  9  1  0  0  0  0
 20 21  2  0  0  0  0
 21 22  1  0  0  0  0
 22 17  2  0  0  0  0
 23 16  2  0  0  0  0
 24 16  1  0  0  0  0
 25 24  2  0  0  0  0
 26 23  1  0  0  0  0
 27 25  1  0  0  0  0
  7  2  2  0  0  0  0
 20 10  1  0  0  0  0
 26 27  2  0  0  0  0
M  END
> <From>
www.bindingDB.org

> <BindingDB Reactant_set_id>
74804

> <Ligand InChI>
InChI=1S/C16H14BNO6S3/c19-17(20)12-5-4-6-13(9-12)18-27(23,24)16-10-15(11-25-16)26(21,22)14-7-2-1-3-8-14/h1-11,18-20H

> <Ligand InChI Key>
YZOKHYPIQNIFRQ-UHFFFAOYSA-N

> <BindingDB MonomerID>
50115616

> <BindingDB Ligand Name>
3-(4-BENZENESULFONYL-THIOPHENE-2-SULFONYLAMINO)-PHENYLBORONIC ACID::4-Benzenesulfonyl-thiophene-2-sulfonic acid (3-dihydroxyboranyl-phenyl)-amide::Amide and sulfonamide derivatives, 2::Aza-boronic acid derivative::CHEMBL113381

> <Target Name>
Beta-lactamase

> <Target Source Organism According to Curator or DataSource>
Escherichia coli

> <Ki (nM)>
 8e+1

> <IC50 (nM)>


> <Kd (nM)>


> <EC50 (nM)>


> <kon (M-1-s-1)>


> <koff (s-1)>


> <pH>
7

> <Temp C>


> <Curation/DataSource>
Curated from the literature by BindingDB

> <Article DOI>
10.1016/S1074-5521(01)00034-5

> <BindingDB Entry DOI>
10.7270/Q27M06BZ

> <PMID>
11410378

> <PubChem AID>
aid1799472

> <Patent Number>


> <Authors>
Tondi, D; Powers, RA; Caselli, E; Negri, MC; Bl&aacute;zquez, J; Costi, MP; Shoichet, BK

> <Institution>
Northwestern University

> <Link to Ligand in BindingDB>
http://www.bindingdb.org/bind/chemsearch/marvin/MolStructure.jsp?monomerid=50115616

> <Link to Ligand-Target Pair in BindingDB>
http://www.bindingdb.org/jsp/dbsearch/PrimarySearch_ki.jsp?energyterm=kJ/mole&tag=pol&polymerid=4401&target=Beta-lactamase&column=ki&startPg=0&Increment=50&submit=Search

> <Link to Ligand-Target Pair in BindingDB>
http://www.bindingdb.org/jsp/dbsearch/PrimarySearch_ki.jsp?energyterm=kJ/mole&tag=r21&monomerid=50115616&enzyme=Beta-lactamase&column=ki&startPg=0&Increment=50&submit=Search

> <Ligand HET ID in PDB>
ETP

> <PDB ID(s) for Ligand-Target Complex>
1GA9

> <PubChem CID of Ligand>
1475

> <PubChem SID of Ligand>
104009505

> <ChEBI ID of Ligand>


> <ChEMBL ID of Ligand>
CHEMBL113381

> <DrugBank ID of Ligand>
DB02858

> <IUPHAR_GRAC ID of Ligand>


> <KEGG ID of Ligand>


> <ZINC ID of Ligand>


> <Number of Protein Chains in Target (bigger than 1 implies a multichain complex)>
1

> <BindingDB Target Chain Sequence>
MFKTTLCALLITASCSTFAAPQQINDIVHRTITPLIEQQKIPGMAVAVIYQGKPYYFTWGYADIAKKQPVTQQTLFELGSVSKTFTGVLGGDAIARGEIKLSDPTTKYWPELTAKQWNGITLLHLATYTAGGLPLQVPDEVKSSSDLLRFYQNWQPAWAPGTQRLYANSSIGLFGALAVKPSGLSFEQAMQTRVFQPLKLNHTWINVPPAEEKNYAWGYREGKAVHVSPGALDAEAYGVKSTIEDMARWVQSNLKPLDINEKTLQQGIQLAQSRYWQTGDMYQGLGWEMLDWPVNPDSIINGSDNKIALAARPVKAITPPTPAVRASWVHKTGATGGFGSYVAFIPEKELGIVMLANKNYPNPARVDAAWQILNALQ

> <PDB ID(s) of Target Chain>
1C3B,1FCO,1FSW,1FSY,1GA9,1IEL,1IEM,1KDS,1KDW,1KE0,1KE3,1KE4,1KVM,1L2S,1LL5,1LL9,1LLB,1MXO,1MY8,1XGI,1XGJ,2BLS,2HDQ,2HDR,2HDS,2HDU,2I72,2P9V,2PU2,2PU4,2R9W,2R9X,2RCX,3BLS,3BM6,3GQZ,3GR2,3GRJ,3GSG,3GTC,3GV9,3GVB,3O86,3O87,3O88,4E3I,4E3J,4E3K,4E3L,4E3M,4E3N,4E3O,4JXG,4JXS,4JXV,4JXW,4KG2,4KZ3,4KZ4,4KZ5,4KZ6,4KZ7,4KZ8,4KZ9,4KZA,4KZB,4LV0,4LV1,4LV2,4LV3,4OKP,4OLD,4OLG,6DPT,6DPX,6DPY,6DPZ,6T35,6T3D,6T5Y,6T7L,6TBW,6TPM,6WGQ,6YEN,6YEO,6YPD

> <UniProt (SwissProt) Recommended Name of Target Chain>
Beta-lactamase

> <UniProt (SwissProt) Entry Name of Target Chain>
AMPC_ECOLI

> <UniProt (SwissProt) Primary ID of Target Chain>
P00811

> <UniProt (SwissProt) Secondary ID(s) of Target Chain>
Q2M6F2

> <UniProt (SwissProt) Alternative ID(s) of Target Chain>


> <UniProt (TrEMBL) Submitted Name of Target Chain>


> <UniProt (TrEMBL) Entry Name of Target Chain>


> <UniProt (TrEMBL) Primary ID of Target Chain>


> <UniProt (TrEMBL) Secondary ID(s) of Target Chain>


> <UniProt (TrEMBL) Alternative ID(s) of Target Chain>


$$$$

  Mrv0541 11211411482D          

 27 29  0  0  0  0            999 V2000
    4.1375   -2.2750    0.0000 S   0  0  0  0  0  0  0  0  0  0  0  0
    4.5375   -0.1667    0.0000 C   0  0  0  0  0  0  0  0  0  0  0  0
    5.1167    0.4208    0.0000 S   0  0  0  0  0  0  0  0  0  0  0  0
    4.1375   -1.4417    0.0000 C   0  0  0  0  0  0  0  0  0  0  0  0
    4.7917   -0.9542    0.0000 C   0  0  0  0  0  0  0  0  0  0  0  0
    3.4625   -0.9625    0.0000 S   0  0  0  0  0  0  0  0  0  0  0  0
    3.7125   -0.1750    0.0000 C   0  0  0  0  0  0  0  0  0  0  0  0
    3.3125   -2.2750    0.0000 N   0  0  0  0  0  0  0  0  0  0  0  0
    0.6750   -3.5792    0.0000 B   0  0  0  0  0  0  0  0  0  0  0  0
    1.5000   -3.5792    0.0000 C   0  0  0  0  0  0  0  0  0  0  0  0
    4.9625   -2.2750    0.0000 O   0  0  0  0  0  0  0  0  0  0  0  0
    4.1375   -3.1000    0.0000 O   0  0  0  0  0  0  0  0  0  0  0  0
    1.9042   -2.8667    0.0000 C   0  0  0  0  0  0  0  0  0  0  0  0
    5.5250   -0.2917    0.0000 O   0  0  0  0  0  0  0  0  0  0  0  0
    5.7000    1.0083    0.0000 O   0  0  0  0  0  0  0  0  0  0  0  0
    4.5292    1.0083    0.0000 C   0  0  0  0  0  0  0  0  0  0  0  0
    2.7292   -2.8625    0.0000 C   0  0  0  0  0  0  0  0  0  0  0  0
    0.2542   -2.8625    0.0000 O   0  0  0  0  0  0  0  0  0  0  0  0
    0.0875   -4.1625    0.0000 O   0  0  0  0  0  0  0  0  0  0  0  0
    1.9042   -4.2875    0.0000 C   0  0  0  0  0  0  0  0  0  0  0  0
    2.7292   -4.2875    0.0000 C   0  0  0  0  0  0  0  0  0  0  0  0
    3.1417   -3.5750    0.0000 C   0  0  0  0  0  0  0  0  0  0  0  0
    3.7292    0.7958    0.0000 C   0  0  0  0  0  0  0  0  0  0  0  0
    4.7500    1.8083    0.0000 C   0  0  0  0  0  0  0  0  0  0  0  0
    4.1625    2.3958    0.0000 C   0  0  0  0  0  0  0  0  0  0  0  0
    3.1417    1.3750    0.0000 C   0  0  0  0  0  0  0  0  0  0  0  0
    3.3542    2.1833    0.0000 C   0  0  0  0  0  0  0  0  0  0  0  0
  2  5  1  0  0  0  0
  3  2  1  0  0  0  0
  4  1  1  0  0  0  0
  5  4  2  0  0  0  0
  6  4  1  0  0  0  0
  7  6  1  0  0  0  0
  8  1  1  0  0  0  0
  9 10  1  0  0  0  0
 10 13  2  0  0  0  0
 11  1  2  0  0  0  0
 12  1  2  0  0  0  0
 13 17  1  0  0  0  0
 14  3  2  0  0  0  0
 15  3  2  0  0  0  0
 16  3  1  0  0  0  0
 17  8  1  0  0  0  0
 18  9  1  0  0  0  0
 19  9  1  0  0  0  0
 20 21  2  0  0  0  0
 21 22  1  0  0  0  0
 22 17  2  0  0  0  0
 23 16  2  0  0  0  0
 24 16  1  0  0  0  0
 25 24  2  0  0  0  0
 26 23  1  0  0  0  0
 27 25  1  0  0  0  0
  7  2  2  0  0  0  0
 20 10  1  0  0  0  0
 26 27  2  0  0  0  0
M  END
> <From>
www.bindingDB.org

> <BindingDB Reactant_set_id>
50209032

> <Ligand InChI>
InChI=1S/C16H14BNO6S3/c19-17(20)12-5-4-6-13(9-12)18-27(23,24)16-10-15(11-25-16)26(21,22)14-7-2-1-3-8-14/h1-11,18-20H

> <Ligand InChI Key>
YZOKHYPIQNIFRQ-UHFFFAOYSA-N

> <BindingDB MonomerID>
50115616

> <BindingDB Ligand Name>
3-(4-BENZENESULFONYL-THIOPHENE-2-SULFONYLAMINO)-PHENYLBORONIC ACID::4-Benzenesulfonyl-thiophene-2-sulfonic acid (3-dihydroxyboranyl-phenyl)-amide::Amide and sulfonamide derivatives, 2::Aza-boronic acid derivative::CHEMBL113381

> <Target Name>
Beta-lactamase

> <Target Source Organism According to Curator or DataSource>
Escherichia coli

> <Ki (nM)>
 80

> <IC50 (nM)>


> <Kd (nM)>


> <EC50 (nM)>


> <kon (M-1-s-1)>


> <koff (s-1)>


> <pH>


> <Temp C>


> <Curation/DataSource>
ChEMBL

> <Article DOI>
10.1021/jm020002p

> <BindingDB Entry DOI>
10.7270/Q2CN737M

> <PMID>
12109906

> <PubChem AID>


> <Patent Number>


> <Authors>
Powers, RA; Shoichet, BK

> <Institution>
Northwestern University

> <Link to Ligand in BindingDB>
http://www.bindingdb.org/bind/chemsearch/marvin/MolStructure.jsp?monomerid=50115616

> <Link to Ligand-Target Pair in BindingDB>
http://www.bindingdb.org/jsp/dbsearch/PrimarySearch_ki.jsp?energyterm=kJ/mole&tag=pol&polymerid=4401&target=Beta-lactamase&column=ki&startPg=0&Increment=50&submit=Search

> <Link to Ligand-Target Pair in BindingDB>
http://www.bindingdb.org/jsp/dbsearch/PrimarySearch_ki.jsp?energyterm=kJ/mole&tag=r21&monomerid=50115616&enzyme=Beta-lactamase&column=ki&startPg=0&Increment=50&submit=Search

> <Ligand HET ID in PDB>
ETP

> <PDB ID(s) for Ligand-Target Complex>
1GA9

> <PubChem CID of Ligand>
1475

> <PubChem SID of Ligand>
104009505

> <ChEBI ID of Ligand>


> <ChEMBL ID of Ligand>
CHEMBL113381

> <DrugBank ID of Ligand>
DB02858

> <IUPHAR_GRAC ID of Ligand>


> <KEGG ID of Ligand>


> <ZINC ID of Ligand>


> <Number of Protein Chains in Target (bigger than 1 implies a multichain complex)>
1

> <BindingDB Target Chain Sequence>
MFKTTLCALLITASCSTFAAPQQINDIVHRTITPLIEQQKIPGMAVAVIYQGKPYYFTWGYADIAKKQPVTQQTLFELGSVSKTFTGVLGGDAIARGEIKLSDPTTKYWPELTAKQWNGITLLHLATYTAGGLPLQVPDEVKSSSDLLRFYQNWQPAWAPGTQRLYANSSIGLFGALAVKPSGLSFEQAMQTRVFQPLKLNHTWINVPPAEEKNYAWGYREGKAVHVSPGALDAEAYGVKSTIEDMARWVQSNLKPLDINEKTLQQGIQLAQSRYWQTGDMYQGLGWEMLDWPVNPDSIINGSDNKIALAARPVKAITPPTPAVRASWVHKTGATGGFGSYVAFIPEKELGIVMLANKNYPNPARVDAAWQILNALQ

> <PDB ID(s) of Target Chain>
1C3B,1FCO,1FSW,1FSY,1GA9,1IEL,1IEM,1KDS,1KDW,1KE0,1KE3,1KE4,1KVM,1L2S,1LL5,1LL9,1LLB,1MXO,1MY8,1XGI,1XGJ,2BLS,2HDQ,2HDR,2HDS,2HDU,2I72,2P9V,2PU2,2PU4,2R9W,2R9X,2RCX,3BLS,3BM6,3GQZ,3GR2,3GRJ,3GSG,3GTC,3GV9,3GVB,3O86,3O87,3O88,4E3I,4E3J,4E3K,4E3L,4E3M,4E3N,4E3O,4JXG,4JXS,4JXV,4JXW,4KG2,4KZ3,4KZ4,4KZ5,4KZ6,4KZ7,4KZ8,4KZ9,4KZA,4KZB,4LV0,4LV1,4LV2,4LV3,4OKP,4OLD,4OLG,6DPT,6DPX,6DPY,6DPZ,6T35,6T3D,6T5Y,6T7L,6TBW,6TPM,6WGQ,6YEN,6YEO,6YPD

> <UniProt (SwissProt) Recommended Name of Target Chain>
Beta-lactamase

> <UniProt (SwissProt) Entry Name of Target Chain>
AMPC_ECOLI

> <UniProt (SwissProt) Primary ID of Target Chain>
P00811

> <UniProt (SwissProt) Secondary ID(s) of Target Chain>
Q2M6F2

> <UniProt (SwissProt) Alternative ID(s) of Target Chain>


> <UniProt (TrEMBL) Submitted Name of Target Chain>


> <UniProt (TrEMBL) Entry Name of Target Chain>


> <UniProt (TrEMBL) Primary ID of Target Chain>


> <UniProt (TrEMBL) Secondary ID(s) of Target Chain>


> <UniProt (TrEMBL) Alternative ID(s) of Target Chain>


$$$$

  Mrv0541 11231414582D          

 20 22  0  0  0  0            999 V2000
    8.9922  -22.3634    0.0000 C   0  0  0  0  0  0  0  0  0  0  0  0
    8.9912  -23.1896    0.0000 C   0  0  0  0  0  0  0  0  0  0  0  0
    9.7046  -23.6019    0.0000 C   0  0  0  0  0  0  0  0  0  0  0  0
    9.7029  -21.9512    0.0000 C   0  0  0  0  0  0  0  0  0  0  0  0
   10.4168  -22.3600    0.0000 C   0  0  0  0  0  0  0  0  0  0  0  0
   10.4169  -23.1850    0.0000 C   0  0  0  0  0  0  0  0  0  0  0  0
   11.2016  -23.4400    0.0000 C   0  0  0  0  0  0  0  0  0  0  0  0
   11.6865  -22.7724    0.0000 O   0  0  0  0  0  0  0  0  0  0  0  0
   11.2015  -22.1051    0.0000 B   0  0  0  0  0  0  0  0  0  0  0  0
   11.4560  -21.3214    0.0000 O   0  0  0  0  0  0  0  0  0  0  0  0
    8.2785  -21.9517    0.0000 O   0  0  0  0  0  0  0  0  0  0  0  0
    7.5651  -22.3639    0.0000 C   0  0  0  0  0  0  0  0  0  0  0  0
    6.8532  -21.9479    0.0000 N   0  0  0  0  0  0  0  0  0  0  0  0
    6.1403  -22.3594    0.0000 C   0  0  0  0  0  0  0  0  0  0  0  0
    6.1402  -23.1843    0.0000 C   0  0  0  0  0  0  0  0  0  0  0  0
    6.8589  -23.5958    0.0000 C   0  0  0  0  0  0  0  0  0  0  0  0
    7.5689  -23.1819    0.0000 N   0  0  0  0  0  0  0  0  0  0  0  0
    5.4256  -23.5982    0.0000 C   0  0  0  0  0  0  0  0  0  0  0  0
    4.7114  -23.1874    0.0000 O   0  0  0  0  0  0  0  0  0  0  0  0
    5.4270  -24.4221    0.0000 O   0  0  0  0  0  0  0  0  0  0  0  0
  4  1  2  0  0  0  0
  9 10  1  0  0  0  0
  5  6  2  0  0  0  0
  1 11  1  0  0  0  0
 11 12  1  0  0  0  0
  2  3  2  0  0  0  0
 12 13  2  0  0  0  0
  3  6  1  0  0  0  0
 13 14  1  0  0  0  0
  1  2  1  0  0  0  0
 14 15  2  0  0  0  0
  5  4  1  0  0  0  0
 15 16  1  0  0  0  0
  6  7  1  0  0  0  0
 16 17  2  0  0  0  0
 17 12  1  0  0  0  0
  7  8  1  0  0  0  0
  8  9  1  0  0  0  0
  9  5  1  0  0  0  0
 18 19  1  0  0  0  0
 18 20  2  0  0  0  0
 15 18  1  0  0  0  0
M  END
> <From>
www.bindingDB.org

> <BindingDB Reactant_set_id>
50629881

> <Ligand InChI>
InChI=1S/C12H9BN2O5/c16-11(17)8-4-14-12(15-5-8)20-9-2-1-7-6-19-13(18)10(7)3-9/h1-5,18H,6H2,(H,16,17)

> <Ligand InChI Key>
PYLBHVLRISNLHE-UHFFFAOYSA-N

> <BindingDB MonomerID>
50339870

> <BindingDB Ligand Name>
2-(1-hydroxy-1,3-dihydrobenzo[c][1,2]oxaborol-6-yloxy)pyrimidine-5-carboxylic acid::CHEMBL1761276

> <Target Name>
Beta-lactamase

> <Target Source Organism According to Curator or DataSource>
Enterobacter cloacae

> <Ki (nM)>
 80

> <IC50 (nM)>


> <Kd (nM)>


> <EC50 (nM)>


> <kon (M-1-s-1)>


> <koff (s-1)>


> <pH>


> <Temp C>


> <Curation/DataSource>
ChEMBL

> <Article DOI>
10.1016/j.bmcl.2011.02.024

> <BindingDB Entry DOI>
10.7270/Q2G44QK5

> <PMID>
21392987

> <PubChem AID>


> <Patent Number>


> <Authors>
Xia, Y; Cao, K; Zhou, Y; Alley, MR; Rock, F; Mohan, M; Meewan, M; Baker, SJ; Lux, S; Ding, CZ; Jia, G; Kully, M; Plattner, JJ

> <Institution>
Anacor Pharmaceuticals Inc

> <Link to Ligand in BindingDB>
http://www.bindingdb.org/bind/chemsearch/marvin/MolStructure.jsp?monomerid=50339870

> <Link to Ligand-Target Pair in BindingDB>
http://www.bindingdb.org/jsp/dbsearch/PrimarySearch_ki.jsp?energyterm=kJ/mole&tag=pol&polymerid=50002394&target=Beta-lactamase&column=ki&startPg=0&Increment=50&submit=Search

> <Link to Ligand-Target Pair in BindingDB>
http://www.bindingdb.org/jsp/dbsearch/PrimarySearch_ki.jsp?energyterm=kJ/mole&tag=r21&monomerid=50339870&enzyme=Beta-lactamase&column=ki&startPg=0&Increment=50&submit=Search

> <Ligand HET ID in PDB>


> <PDB ID(s) for Ligand-Target Complex>


> <PubChem CID of Ligand>
52918288

> <PubChem SID of Ligand>
131342806

> <ChEBI ID of Ligand>


> <ChEMBL ID of Ligand>
CHEMBL1761276

> <DrugBank ID of Ligand>


> <IUPHAR_GRAC ID of Ligand>


> <KEGG ID of Ligand>


> <ZINC ID of Ligand>


> <Number of Protein Chains in Target (bigger than 1 implies a multichain complex)>
1

> <BindingDB Target Chain Sequence>
MMRKSLCCALLLGISCSALATPVSEKQLAEVVANTITPLMKAQSVPGMAVAVIYQGKPHYYTFGKADIAANKPVTPQTLFELGSISKTFTGVLGGDAIARGEISLDDAVTRYWPQLTGKQWQGIRMLDLATYTAGGLPLQVPDEVTDNASLLRFYQNWQPQWKPGTTRLYANASIGLFGALAVKPSGMPYEQAMTTRVLKPLKLDHTWINVPKAEEAHYAWGYRDGKAVRVSPGMLDAQAYGVKTNVQDMANWVMANMAPENVADASLKQGIALAQSRYWRIGSMYQGLGWEMLNWPVEANTVVEGSDSKVALAPLPVAEVNPPAPPVKASWVHKTGSTGGFGSYVAFIPEKQIGIVMLANTSYPNPARVEAAYHILEALQ

> <PDB ID(s) of Target Chain>
1XX2,2Q9M,2Q9N,7TI1

> <UniProt (SwissProt) Recommended Name of Target Chain>
Beta-lactamase

> <UniProt (SwissProt) Entry Name of Target Chain>
AMPC_ENTCL

> <UniProt (SwissProt) Primary ID of Target Chain>
P05364

> <UniProt (SwissProt) Secondary ID(s) of Target Chain>


> <UniProt (SwissProt) Alternative ID(s) of Target Chain>


> <UniProt (TrEMBL) Submitted Name of Target Chain>


> <UniProt (TrEMBL) Entry Name of Target Chain>


> <UniProt (TrEMBL) Primary ID of Target Chain>


> <UniProt (TrEMBL) Secondary ID(s) of Target Chain>


> <UniProt (TrEMBL) Alternative ID(s) of Target Chain>


$$$$

  Mrv0541 11191401012D          

 32 34  0  0  0  0            999 V2000
   -0.7396    1.4778    0.0000 C   0  0  0  0  0  0  0  0  0  0  0  0
   -1.5646    1.4778    0.0000 C   0  0  0  0  0  0  0  0  0  0  0  0
   -1.9771    2.1922    0.0000 C   0  0  0  0  0  0  0  0  0  0  0  0
   -1.5646    2.9067    0.0000 C   0  0  0  0  0  0  0  0  0  0  0  0
   -0.7396    2.9067    0.0000 C   0  0  0  0  0  0  0  0  0  0  0  0
   -0.3271    2.1922    0.0000 C   0  0  0  0  0  0  0  0  0  0  0  0
   -1.9771    3.6212    0.0000 B   0  0  0  0  0  0  0  0  0  0  0  0
   -2.8021    3.6212    0.0000 O   0  0  0  0  0  0  0  0  0  0  0  0
   -1.5646    4.3356    0.0000 O   0  0  0  0  0  0  0  0  0  0  0  0
    0.4979    2.1922    0.0000 N   0  0  0  0  0  0  0  0  0  0  0  0
    0.9104    1.4778    0.0000 S   0  0  0  0  0  0  0  0  0  0  0  0
    0.4979    0.7633    0.0000 O   0  0  0  0  0  0  0  0  0  0  0  0
    1.7354    1.4778    0.0000 C   0  0  0  0  0  0  0  0  0  0  0  0
    1.3229    2.1923    0.0000 O   0  0  0  0  0  0  0  0  0  0  0  0
    2.9729    2.1923    0.0000 C   0  0  0  0  0  0  0  0  0  0  0  0
    2.1479    2.1923    0.0000 C   0  0  0  0  0  0  0  0  0  0  0  0
    2.1479    0.7633    0.0000 C   0  0  0  0  0  0  0  0  0  0  0  0
    2.9729    0.7634    0.0000 C   0  0  0  0  0  0  0  0  0  0  0  0
    3.3854    1.4778    0.0000 C   0  0  0  0  0  0  0  0  0  0  0  0
    3.3854    0.0489    0.0000 N   0  0  0  0  0  0  0  0  0  0  0  0
    4.2104    0.0489    0.0000 S   0  0  0  0  0  0  0  0  0  0  0  0
    4.7938   -0.5345    0.0000 C   0  0  0  0  0  0  0  0  0  0  0  0
    3.7979    0.7634    0.0000 O   0  0  0  0  0  0  0  0  0  0  0  0
    4.9249    0.4614    0.0000 O   0  0  0  0  0  0  0  0  0  0  0  0
    5.5906   -0.3209    0.0000 C   0  0  0  0  0  0  0  0  0  0  0  0
    4.5802   -1.3314    0.0000 C   0  0  0  0  0  0  0  0  0  0  0  0
    5.1636   -1.9147    0.0000 C   0  0  0  0  0  0  0  0  0  0  0  0
    5.9605   -1.7012    0.0000 C   0  0  0  0  0  0  0  0  0  0  0  0
    6.1740   -0.9043    0.0000 C   0  0  0  0  0  0  0  0  0  0  0  0
    6.5438   -2.2846    0.0000 C   0  0  0  0  0  0  0  0  0  0  0  0
    7.3407   -2.0710    0.0000 O   0  0  0  0  0  0  0  0  0  0  0  0
    6.3303   -3.0815    0.0000 O   0  0  0  0  0  0  0  0  0  0  0  0
  1  2  2  0  0  0  0
  2  3  1  0  0  0  0
  3  4  2  0  0  0  0
  4  5  1  0  0  0  0
  5  6  2  0  0  0  0
  1  6  1  0  0  0  0
  4  7  1  0  0  0  0
  7  8  1  0  0  0  0
  7  9  1  0  0  0  0
  6 10  1  0  0  0  0
 10 11  1  0  0  0  0
 11 12  2  0  0  0  0
 11 13  1  0  0  0  0
 11 14  2  0  0  0  0
 16 13  2  0  0  0  0
 13 17  1  0  0  0  0
 15 16  1  0  0  0  0
 17 18  2  0  0  0  0
 18 19  1  0  0  0  0
 15 19  2  0  0  0  0
 18 20  1  0  0  0  0
 20 21  1  0  0  0  0
 21 22  1  0  0  0  0
 21 23  2  0  0  0  0
 21 24  2  0  0  0  0
 25 22  2  0  0  0  0
 22 26  1  0  0  0  0
 26 27  2  0  0  0  0
 27 28  1  0  0  0  0
 28 29  2  0  0  0  0
 25 29  1  0  0  0  0
 28 30  1  0  0  0  0
 30 31  2  0  0  0  0
 30 32  1  0  0  0  0
M  END
> <From>
www.bindingDB.org

> <BindingDB Reactant_set_id>
74842

> <Ligand InChI>
InChI=1S/C19H17BN2O8S2/c23-19(24)13-7-9-17(10-8-13)31(27,28)22-16-5-2-6-18(12-16)32(29,30)21-15-4-1-3-14(11-15)20(25)26/h1-12,21-22,25-26H,(H,23,24)

> <Ligand InChI Key>
SXBYWLSPXCJQIF-UHFFFAOYSA-N

> <BindingDB MonomerID>
39856

> <BindingDB Ligand Name>
Amide and sulfonamide derivatives, 41

> <Target Name>
Beta-lactamase

> <Target Source Organism According to Curator or DataSource>
Escherichia coli

> <Ki (nM)>
 8e+1

> <IC50 (nM)>


> <Kd (nM)>


> <EC50 (nM)>


> <kon (M-1-s-1)>


> <koff (s-1)>


> <pH>
7

> <Temp C>


> <Curation/DataSource>
Curated from the literature by BindingDB

> <Article DOI>
10.1016/S1074-5521(01)00034-5

> <BindingDB Entry DOI>
10.7270/Q27M06BZ

> <PMID>
11410378

> <PubChem AID>
aid1799472

> <Patent Number>


> <Authors>
Tondi, D; Powers, RA; Caselli, E; Negri, MC; Bl&aacute;zquez, J; Costi, MP; Shoichet, BK

> <Institution>
Northwestern University

> <Link to Ligand in BindingDB>
http://www.bindingdb.org/bind/chemsearch/marvin/MolStructure.jsp?monomerid=39856

> <Link to Ligand-Target Pair in BindingDB>
http://www.bindingdb.org/jsp/dbsearch/PrimarySearch_ki.jsp?energyterm=kJ/mole&tag=pol&polymerid=4401&target=Beta-lactamase&column=ki&startPg=0&Increment=50&submit=Search

> <Link to Ligand-Target Pair in BindingDB>
http://www.bindingdb.org/jsp/dbsearch/PrimarySearch_ki.jsp?energyterm=kJ/mole&tag=r21&monomerid=39856&enzyme=Beta-lactamase&column=ki&startPg=0&Increment=50&submit=Search

> <Ligand HET ID in PDB>


> <PDB ID(s) for Ligand-Target Complex>


> <PubChem CID of Ligand>
9869567

> <PubChem SID of Ligand>
123080164

> <ChEBI ID of Ligand>


> <ChEMBL ID of Ligand>


> <DrugBank ID of Ligand>


> <IUPHAR_GRAC ID of Ligand>


> <KEGG ID of Ligand>


> <ZINC ID of Ligand>


> <Number of Protein Chains in Target (bigger than 1 implies a multichain complex)>
1

> <BindingDB Target Chain Sequence>
MFKTTLCALLITASCSTFAAPQQINDIVHRTITPLIEQQKIPGMAVAVIYQGKPYYFTWGYADIAKKQPVTQQTLFELGSVSKTFTGVLGGDAIARGEIKLSDPTTKYWPELTAKQWNGITLLHLATYTAGGLPLQVPDEVKSSSDLLRFYQNWQPAWAPGTQRLYANSSIGLFGALAVKPSGLSFEQAMQTRVFQPLKLNHTWINVPPAEEKNYAWGYREGKAVHVSPGALDAEAYGVKSTIEDMARWVQSNLKPLDINEKTLQQGIQLAQSRYWQTGDMYQGLGWEMLDWPVNPDSIINGSDNKIALAARPVKAITPPTPAVRASWVHKTGATGGFGSYVAFIPEKELGIVMLANKNYPNPARVDAAWQILNALQ

> <PDB ID(s) of Target Chain>
1C3B,1FCO,1FSW,1FSY,1GA9,1IEL,1IEM,1KDS,1KDW,1KE0,1KE3,1KE4,1KVM,1L2S,1LL5,1LL9,1LLB,1MXO,1MY8,1XGI,1XGJ,2BLS,2HDQ,2HDR,2HDS,2HDU,2I72,2P9V,2PU2,2PU4,2R9W,2R9X,2RCX,3BLS,3BM6,3GQZ,3GR2,3GRJ,3GSG,3GTC,3GV9,3GVB,3O86,3O87,3O88,4E3I,4E3J,4E3K,4E3L,4E3M,4E3N,4E3O,4JXG,4JXS,4JXV,4JXW,4KG2,4KZ3,4KZ4,4KZ5,4KZ6,4KZ7,4KZ8,4KZ9,4KZA,4KZB,4LV0,4LV1,4LV2,4LV3,4OKP,4OLD,4OLG,6DPT,6DPX,6DPY,6DPZ,6T35,6T3D,6T5Y,6T7L,6TBW,6TPM,6WGQ,6YEN,6YEO,6YPD

> <UniProt (SwissProt) Recommended Name of Target Chain>
Beta-lactamase

> <UniProt (SwissProt) Entry Name of Target Chain>
AMPC_ECOLI

> <UniProt (SwissProt) Primary ID of Target Chain>
P00811

> <UniProt (SwissProt) Secondary ID(s) of Target Chain>
Q2M6F2

> <UniProt (SwissProt) Alternative ID(s) of Target Chain>


> <UniProt (TrEMBL) Submitted Name of Target Chain>


> <UniProt (TrEMBL) Entry Name of Target Chain>


> <UniProt (TrEMBL) Primary ID of Target Chain>


> <UniProt (TrEMBL) Secondary ID(s) of Target Chain>


> <UniProt (TrEMBL) Alternative ID(s) of Target Chain>


$$$$

  Mrv0541 11221409162D          

 20 22  0  0  0  0            999 V2000
   -1.8649  -16.9374    0.0000 C   0  0  0  0  0  0  0  0  0  0  0  0
   -1.8661  -17.7591    0.0000 C   0  0  0  0  0  0  0  0  0  0  0  0
   -1.1483  -18.1713    0.0000 C   0  0  0  0  0  0  0  0  0  0  0  0
   -1.1501  -16.5254    0.0000 C   0  0  0  0  0  0  0  0  0  0  0  0
   -0.4401  -16.9338    0.0000 C   0  0  0  0  0  0  0  0  0  0  0  0
   -0.4398  -17.7592    0.0000 C   0  0  0  0  0  0  0  0  0  0  0  0
    0.3451  -18.0112    0.0000 S   0  0  0  0  0  0  0  0  0  0  0  0
    0.8243  -17.3523    0.0000 C   0  0  0  0  0  0  0  0  0  0  0  0
    0.3447  -16.6814    0.0000 C   0  0  0  0  0  0  0  0  0  0  0  0
    1.6479  -17.3562    0.0000 B   0  0  0  0  0  0  0  0  0  0  0  0
    2.0598  -18.0651    0.0000 O   0  0  0  0  0  0  0  0  0  0  0  0
    2.0593  -16.6387    0.0000 O   0  0  0  0  0  0  0  0  0  0  0  0
   -2.5865  -16.5216    0.0000 C   0  0  0  0  0  0  0  0  0  0  0  0
   -3.2980  -16.9376    0.0000 S   0  0  0  0  0  0  0  0  0  0  0  0
   -4.0155  -16.5301    0.0000 C   0  0  0  0  0  0  0  0  0  0  0  0
   -4.0187  -15.7099    0.0000 C   0  0  0  0  0  0  0  0  0  0  0  0
   -4.7311  -15.2984    0.0000 C   0  0  0  0  0  0  0  0  0  0  0  0
   -5.4609  -15.7146    0.0000 C   0  0  0  0  0  0  0  0  0  0  0  0
   -5.4512  -16.5423    0.0000 C   0  0  0  0  0  0  0  0  0  0  0  0
   -4.7293  -16.9502    0.0000 C   0  0  0  0  0  0  0  0  0  0  0  0
  4  1  1  0  0  0  0
  8 10  1  0  0  0  0
  5  6  1  0  0  0  0
 10 11  1  0  0  0  0
 10 12  1  0  0  0  0
  2  3  1  0  0  0  0
  1 13  1  0  0  0  0
  3  6  2  0  0  0  0
 13 14  1  0  0  0  0
  1  2  2  0  0  0  0
 14 15  1  0  0  0  0
  5  4  2  0  0  0  0
 15 16  2  0  0  0  0
  6  7  1  0  0  0  0
 16 17  1  0  0  0  0
  7  8  1  0  0  0  0
 17 18  2  0  0  0  0
  8  9  2  0  0  0  0
 18 19  1  0  0  0  0
  9  5  1  0  0  0  0
 19 20  2  0  0  0  0
 20 15  1  0  0  0  0
M  END
> <From>
www.bindingDB.org

> <BindingDB Reactant_set_id>
50404439

> <Ligand InChI>
InChI=1S/C15H13BO2S2/c17-16(18)15-9-12-8-11(6-7-14(12)20-15)10-19-13-4-2-1-3-5-13/h1-9,17-18H,10H2

> <Ligand InChI Key>
NKBQQHAXUYEGJK-UHFFFAOYSA-N

> <BindingDB MonomerID>
50225383

> <BindingDB Ligand Name>
CHEMBL236203::pinacol 5-phenylsulphanylmethylbenzo[b]thiophen-2-ylboronate

> <Target Name>
Beta-lactamase TEM

> <Target Source Organism According to Curator or DataSource>


> <Ki (nM)>
 80

> <IC50 (nM)>


> <Kd (nM)>


> <EC50 (nM)>


> <kon (M-1-s-1)>


> <koff (s-1)>


> <pH>


> <Temp C>


> <Curation/DataSource>
ChEMBL

> <Article DOI>
10.1021/jm070643q

> <BindingDB Entry DOI>
10.7270/Q21N80W5

> <PMID>
17956081

> <PubChem AID>


> <Patent Number>


> <Authors>
Venturelli, A; Tondi, D; Cancian, L; Morandi, F; Cannazza, G; Segatore, B; Prati, F; Amicosante, G; Shoichet, BK; Costi, MP

> <Institution>
Universit&#224; degli Studi di Modena e Reggio Emilia

> <Link to Ligand in BindingDB>
http://www.bindingdb.org/bind/chemsearch/marvin/MolStructure.jsp?monomerid=50225383

> <Link to Ligand-Target Pair in BindingDB>
http://www.bindingdb.org/jsp/dbsearch/PrimarySearch_ki.jsp?energyterm=kJ/mole&tag=pol&polymerid=7704&target=Beta-lactamase+TEM&column=ki&startPg=0&Increment=50&submit=Search

> <Link to Ligand-Target Pair in BindingDB>
http://www.bindingdb.org/jsp/dbsearch/PrimarySearch_ki.jsp?energyterm=kJ/mole&tag=r21&monomerid=50225383&enzyme=Beta-lactamase+TEM&column=ki&startPg=0&Increment=50&submit=Search

> <Ligand HET ID in PDB>


> <PDB ID(s) for Ligand-Target Complex>


> <PubChem CID of Ligand>
23655486

> <PubChem SID of Ligand>
104096689

> <ChEBI ID of Ligand>


> <ChEMBL ID of Ligand>
CHEMBL236203

> <DrugBank ID of Ligand>


> <IUPHAR_GRAC ID of Ligand>


> <KEGG ID of Ligand>


> <ZINC ID of Ligand>


> <Number of Protein Chains in Target (bigger than 1 implies a multichain complex)>
1

> <BindingDB Target Chain Sequence>
MSIQHFRVALIPFFAAFCLPVFAHPETLVKVKDAEDQLGARVGYIELDLNSGKILESFRPEERFPMMSTFKVLLCGAVLSRVDAGQEQLGRRIHYSQNDLVEYSPVTEKHLTDGMTVRELCSAAITMSDNTAANLLLTTIGGPKELTAFLHNMGDHVTRLDRWEPELNEAIPNDERDTTMPAAMATTLRKLLTGELLTLASRQQLIDWMEADKVAGPLLRSALPAGWFIADKSGAGERGSRGIIAALGPDGKPSRIVVIYTTGSQATMDERNRQIAEIGASLIKHW

> <PDB ID(s) of Target Chain>
1ERM,1ERO,1ERQ,1ESU,1FQG,1JTD,1JVJ,1JWP,1JWV,1LHY,1LI9,1M40,1NXY,1NY0,1NYM,1NYY,1PZO,1PZP,1S0W,1XPB,1YT4,2V1Z,2V20,3CMZ,3DTM,3JYI,3P98,4DXB,4DXC,4GKU,4ZJ2,5AQ8,5HVI,5HW1,5HW5,5NPO,6B2N,7QLP,7QNK,7U6Q,8DE0

> <UniProt (SwissProt) Recommended Name of Target Chain>
Beta-lactamase TEM

> <UniProt (SwissProt) Entry Name of Target Chain>
BLAT_ECOLX

> <UniProt (SwissProt) Primary ID of Target Chain>
P62593

> <UniProt (SwissProt) Secondary ID(s) of Target Chain>
P00810 Q47313

> <UniProt (SwissProt) Alternative ID(s) of Target Chain>


> <UniProt (TrEMBL) Submitted Name of Target Chain>


> <UniProt (TrEMBL) Entry Name of Target Chain>


> <UniProt (TrEMBL) Primary ID of Target Chain>


> <UniProt (TrEMBL) Secondary ID(s) of Target Chain>


> <UniProt (TrEMBL) Alternative ID(s) of Target Chain>


$$$$

  Mrv0541 11221409162D          

 18 20  0  0  0  0            999 V2000
    6.5056   -3.6622    0.0000 C   0  0  0  0  0  0  0  0  0  0  0  0
    6.0151   -4.3357    0.0000 S   0  0  0  0  0  0  0  0  0  0  0  0
    3.0928   -2.0203    0.0000 N   0  0  0  0  0  0  0  0  0  0  0  0
    6.0151   -2.9930    0.0000 C   0  0  0  0  0  0  0  0  0  0  0  0
    7.3286   -3.6622    0.0000 B   0  0  0  0  0  0  0  0  0  0  0  0
    5.2295   -3.2507    0.0000 C   0  0  0  0  0  0  0  0  0  0  0  0
    5.2295   -4.0780    0.0000 C   0  0  0  0  0  0  0  0  0  0  0  0
    3.5001   -0.7524    0.0000 N   0  0  0  0  0  0  0  0  0  0  0  0
    3.7579   -1.5339    0.0000 C   0  0  0  0  0  0  0  0  0  0  0  0
    4.5144   -2.8392    0.0000 C   0  0  0  0  0  0  0  0  0  0  0  0
    3.0928   -2.8433    0.0000 C   0  0  0  0  0  0  0  0  0  0  0  0
    3.8036   -3.2507    0.0000 C   0  0  0  0  0  0  0  0  0  0  0  0
    4.5144   -4.4895    0.0000 C   0  0  0  0  0  0  0  0  0  0  0  0
    2.6770   -0.7524    0.0000 C   0  0  0  0  0  0  0  0  0  0  0  0
    7.7402   -2.9514    0.0000 O   0  0  0  0  0  0  0  0  0  0  0  0
    7.7402   -4.3773    0.0000 O   0  0  0  0  0  0  0  0  0  0  0  0
    2.4235   -1.5339    0.0000 C   0  0  0  0  0  0  0  0  0  0  0  0
    3.8036   -4.0780    0.0000 C   0  0  0  0  0  0  0  0  0  0  0  0
  2  1  1  0  0  0  0
  3 11  1  0  0  0  0
  4  1  2  0  0  0  0
  5  1  1  0  0  0  0
  6  4  1  0  0  0  0
  7  2  1  0  0  0  0
  8  9  2  0  0  0  0
  9  3  1  0  0  0  0
 10  6  2  0  0  0  0
 11 12  1  0  0  0  0
 12 10  1  0  0  0  0
 13  7  2  0  0  0  0
 14 17  2  0  0  0  0
 15  5  1  0  0  0  0
 16  5  1  0  0  0  0
 17  3  1  0  0  0  0
 18 13  1  0  0  0  0
  7  6  1  0  0  0  0
 18 12  2  0  0  0  0
 14  8  1  0  0  0  0
M  END
> <From>
www.bindingDB.org

> <BindingDB Reactant_set_id>
50404434

> <Ligand InChI>
InChI=1S/C12H11BN2O2S/c16-13(17)12-6-10-5-9(1-2-11(10)18-12)7-15-4-3-14-8-15/h1-6,8,16-17H,7H2

> <Ligand InChI Key>
PUCQEQODRLZNBJ-UHFFFAOYSA-N

> <BindingDB MonomerID>
50225389

> <BindingDB Ligand Name>
5-imidazol-1-yl-methylbenzo[b]thiophen-2-ylboronic acid::CHEMBL395186

> <Target Name>
Beta-lactamase TEM

> <Target Source Organism According to Curator or DataSource>


> <Ki (nM)>
 82

> <IC50 (nM)>


> <Kd (nM)>


> <EC50 (nM)>


> <kon (M-1-s-1)>


> <koff (s-1)>


> <pH>


> <Temp C>


> <Curation/DataSource>
ChEMBL

> <Article DOI>
10.1021/jm070643q

> <BindingDB Entry DOI>
10.7270/Q21N80W5

> <PMID>
17956081

> <PubChem AID>


> <Patent Number>


> <Authors>
Venturelli, A; Tondi, D; Cancian, L; Morandi, F; Cannazza, G; Segatore, B; Prati, F; Amicosante, G; Shoichet, BK; Costi, MP

> <Institution>
Universit&#224; degli Studi di Modena e Reggio Emilia

> <Link to Ligand in BindingDB>
http://www.bindingdb.org/bind/chemsearch/marvin/MolStructure.jsp?monomerid=50225389

> <Link to Ligand-Target Pair in BindingDB>
http://www.bindingdb.org/jsp/dbsearch/PrimarySearch_ki.jsp?energyterm=kJ/mole&tag=pol&polymerid=7704&target=Beta-lactamase+TEM&column=ki&startPg=0&Increment=50&submit=Search

> <Link to Ligand-Target Pair in BindingDB>
http://www.bindingdb.org/jsp/dbsearch/PrimarySearch_ki.jsp?energyterm=kJ/mole&tag=r21&monomerid=50225389&enzyme=Beta-lactamase+TEM&column=ki&startPg=0&Increment=50&submit=Search

> <Ligand HET ID in PDB>


> <PDB ID(s) for Ligand-Target Complex>


> <PubChem CID of Ligand>
23655690

> <PubChem SID of Ligand>
104096695

> <ChEBI ID of Ligand>


> <ChEMBL ID of Ligand>
CHEMBL395186

> <DrugBank ID of Ligand>


> <IUPHAR_GRAC ID of Ligand>


> <KEGG ID of Ligand>


> <ZINC ID of Ligand>


> <Number of Protein Chains in Target (bigger than 1 implies a multichain complex)>
1

> <BindingDB Target Chain Sequence>
MSIQHFRVALIPFFAAFCLPVFAHPETLVKVKDAEDQLGARVGYIELDLNSGKILESFRPEERFPMMSTFKVLLCGAVLSRVDAGQEQLGRRIHYSQNDLVEYSPVTEKHLTDGMTVRELCSAAITMSDNTAANLLLTTIGGPKELTAFLHNMGDHVTRLDRWEPELNEAIPNDERDTTMPAAMATTLRKLLTGELLTLASRQQLIDWMEADKVAGPLLRSALPAGWFIADKSGAGERGSRGIIAALGPDGKPSRIVVIYTTGSQATMDERNRQIAEIGASLIKHW

> <PDB ID(s) of Target Chain>
1ERM,1ERO,1ERQ,1ESU,1FQG,1JTD,1JVJ,1JWP,1JWV,1LHY,1LI9,1M40,1NXY,1NY0,1NYM,1NYY,1PZO,1PZP,1S0W,1XPB,1YT4,2V1Z,2V20,3CMZ,3DTM,3JYI,3P98,4DXB,4DXC,4GKU,4ZJ2,5AQ8,5HVI,5HW1,5HW5,5NPO,6B2N,7QLP,7QNK,7U6Q,8DE0

> <UniProt (SwissProt) Recommended Name of Target Chain>
Beta-lactamase TEM

> <UniProt (SwissProt) Entry Name of Target Chain>
BLAT_ECOLX

> <UniProt (SwissProt) Primary ID of Target Chain>
P62593

> <UniProt (SwissProt) Secondary ID(s) of Target Chain>
P00810 Q47313

> <UniProt (SwissProt) Alternative ID(s) of Target Chain>


> <UniProt (TrEMBL) Submitted Name of Target Chain>


> <UniProt (TrEMBL) Entry Name of Target Chain>


> <UniProt (TrEMBL) Primary ID of Target Chain>


> <UniProt (TrEMBL) Secondary ID(s) of Target Chain>


> <UniProt (TrEMBL) Alternative ID(s) of Target Chain>


$$$$

  Mrv0541 11221409162D          

 22 24  0  0  0  0            999 V2000
   -0.5252  -13.6117    0.0000 C   0  0  0  0  0  0  0  0  0  0  0  0
   -0.5264  -14.4331    0.0000 C   0  0  0  0  0  0  0  0  0  0  0  0
    0.1910  -14.8451    0.0000 C   0  0  0  0  0  0  0  0  0  0  0  0
    0.1892  -13.1999    0.0000 C   0  0  0  0  0  0  0  0  0  0  0  0
    0.8988  -13.6081    0.0000 C   0  0  0  0  0  0  0  0  0  0  0  0
    0.8991  -14.4332    0.0000 C   0  0  0  0  0  0  0  0  0  0  0  0
    1.6837  -14.6850    0.0000 S   0  0  0  0  0  0  0  0  0  0  0  0
    2.1626  -14.0265    0.0000 C   0  0  0  0  0  0  0  0  0  0  0  0
    1.6832  -13.3559    0.0000 C   0  0  0  0  0  0  0  0  0  0  0  0
    2.9858  -14.0304    0.0000 B   0  0  0  0  0  0  0  0  0  0  0  0
    3.3976  -14.7389    0.0000 O   0  0  0  0  0  0  0  0  0  0  0  0
    3.3971  -13.3132    0.0000 O   0  0  0  0  0  0  0  0  0  0  0  0
   -1.2434  -13.1977    0.0000 C   0  0  0  0  0  0  0  0  0  0  0  0
   -1.9563  -13.6135    0.0000 O   0  0  0  0  0  0  0  0  0  0  0  0
   -2.6743  -13.2078    0.0000 C   0  0  0  0  0  0  0  0  0  0  0  0
   -2.6788  -12.3828    0.0000 C   0  0  0  0  0  0  0  0  0  0  0  0
   -3.3918  -11.9730    0.0000 C   0  0  0  0  0  0  0  0  0  0  0  0
   -4.1173  -12.3906    0.0000 C   0  0  0  0  0  0  0  0  0  0  0  0
   -4.1084  -13.2180    0.0000 C   0  0  0  0  0  0  0  0  0  0  0  0
   -3.3906  -13.6282    0.0000 C   0  0  0  0  0  0  0  0  0  0  0  0
   -4.8486  -11.9865    0.0000 Cl  0  0  0  0  0  0  0  0  0  0  0  0
   -4.8307  -13.6391    0.0000 Cl  0  0  0  0  0  0  0  0  0  0  0  0
  5  6  1  0  0  0  0
 10 11  1  0  0  0  0
 10 12  1  0  0  0  0
  2  3  1  0  0  0  0
  1 13  1  0  0  0  0
  3  6  2  0  0  0  0
 13 14  1  0  0  0  0
  1  2  2  0  0  0  0
 14 15  1  0  0  0  0
  5  4  2  0  0  0  0
 15 16  2  0  0  0  0
  6  7  1  0  0  0  0
 16 17  1  0  0  0  0
  7  8  1  0  0  0  0
 17 18  2  0  0  0  0
  8  9  2  0  0  0  0
 18 19  1  0  0  0  0
  9  5  1  0  0  0  0
 19 20  2  0  0  0  0
 20 15  1  0  0  0  0
  4  1  1  0  0  0  0
 18 21  1  0  0  0  0
  8 10  1  0  0  0  0
 19 22  1  0  0  0  0
M  END
> <From>
www.bindingDB.org

> <BindingDB Reactant_set_id>
50404427

> <Ligand InChI>
InChI=1S/C15H11BCl2O3S/c17-12-3-2-11(7-13(12)18)21-8-9-1-4-14-10(5-9)6-15(22-14)16(19)20/h1-7,19-20H,8H2

> <Ligand InChI Key>
ORYFBEFEVAROPS-UHFFFAOYSA-N

> <BindingDB MonomerID>
50225377

> <BindingDB Ligand Name>
CHEMBL237390::pinacol 5-(3,4-dichlorophenoxymethyl)benzo[b]thiophen-2-ylboronate

> <Target Name>
Beta-lactamase TEM

> <Target Source Organism According to Curator or DataSource>


> <Ki (nM)>
 83

> <IC50 (nM)>


> <Kd (nM)>


> <EC50 (nM)>


> <kon (M-1-s-1)>


> <koff (s-1)>


> <pH>


> <Temp C>


> <Curation/DataSource>
ChEMBL

> <Article DOI>
10.1021/jm070643q

> <BindingDB Entry DOI>
10.7270/Q21N80W5

> <PMID>
17956081

> <PubChem AID>


> <Patent Number>


> <Authors>
Venturelli, A; Tondi, D; Cancian, L; Morandi, F; Cannazza, G; Segatore, B; Prati, F; Amicosante, G; Shoichet, BK; Costi, MP

> <Institution>
Universit&#224; degli Studi di Modena e Reggio Emilia

> <Link to Ligand in BindingDB>
http://www.bindingdb.org/bind/chemsearch/marvin/MolStructure.jsp?monomerid=50225377

> <Link to Ligand-Target Pair in BindingDB>
http://www.bindingdb.org/jsp/dbsearch/PrimarySearch_ki.jsp?energyterm=kJ/mole&tag=pol&polymerid=7704&target=Beta-lactamase+TEM&column=ki&startPg=0&Increment=50&submit=Search

> <Link to Ligand-Target Pair in BindingDB>
http://www.bindingdb.org/jsp/dbsearch/PrimarySearch_ki.jsp?energyterm=kJ/mole&tag=r21&monomerid=50225377&enzyme=Beta-lactamase+TEM&column=ki&startPg=0&Increment=50&submit=Search

> <Ligand HET ID in PDB>


> <PDB ID(s) for Ligand-Target Complex>


> <PubChem CID of Ligand>
23655484

> <PubChem SID of Ligand>
104096683

> <ChEBI ID of Ligand>


> <ChEMBL ID of Ligand>
CHEMBL237390

> <DrugBank ID of Ligand>


> <IUPHAR_GRAC ID of Ligand>


> <KEGG ID of Ligand>


> <ZINC ID of Ligand>


> <Number of Protein Chains in Target (bigger than 1 implies a multichain complex)>
1

> <BindingDB Target Chain Sequence>
MSIQHFRVALIPFFAAFCLPVFAHPETLVKVKDAEDQLGARVGYIELDLNSGKILESFRPEERFPMMSTFKVLLCGAVLSRVDAGQEQLGRRIHYSQNDLVEYSPVTEKHLTDGMTVRELCSAAITMSDNTAANLLLTTIGGPKELTAFLHNMGDHVTRLDRWEPELNEAIPNDERDTTMPAAMATTLRKLLTGELLTLASRQQLIDWMEADKVAGPLLRSALPAGWFIADKSGAGERGSRGIIAALGPDGKPSRIVVIYTTGSQATMDERNRQIAEIGASLIKHW

> <PDB ID(s) of Target Chain>
1ERM,1ERO,1ERQ,1ESU,1FQG,1JTD,1JVJ,1JWP,1JWV,1LHY,1LI9,1M40,1NXY,1NY0,1NYM,1NYY,1PZO,1PZP,1S0W,1XPB,1YT4,2V1Z,2V20,3CMZ,3DTM,3JYI,3P98,4DXB,4DXC,4GKU,4ZJ2,5AQ8,5HVI,5HW1,5HW5,5NPO,6B2N,7QLP,7QNK,7U6Q,8DE0

> <UniProt (SwissProt) Recommended Name of Target Chain>
Beta-lactamase TEM

> <UniProt (SwissProt) Entry Name of Target Chain>
BLAT_ECOLX

> <UniProt (SwissProt) Primary ID of Target Chain>
P62593

> <UniProt (SwissProt) Secondary ID(s) of Target Chain>
P00810 Q47313

> <UniProt (SwissProt) Alternative ID(s) of Target Chain>


> <UniProt (TrEMBL) Submitted Name of Target Chain>


> <UniProt (TrEMBL) Entry Name of Target Chain>


> <UniProt (TrEMBL) Primary ID of Target Chain>


> <UniProt (TrEMBL) Secondary ID(s) of Target Chain>


> <UniProt (TrEMBL) Alternative ID(s) of Target Chain>


$$$$

  Mrv0541 11231414252D          

 28 30  0  0  0  0            999 V2000
    1.3651    0.5848    0.0000 C   0  0  0  0  0  0  0  0  0  0  0  0
    0.7817    1.1682    0.0000 O   0  0  0  0  0  0  0  0  0  0  0  0
    2.1901    0.5848    0.0000 N   0  0  0  0  0  0  0  0  0  0  0  0
    2.1901   -0.2402    0.0000 C   0  0  2  0  0  0  0  0  0  0  0  0
    2.9046   -0.6527    0.0000 S   0  0  0  0  0  0  0  0  0  0  0  0
    3.6190   -0.2402    0.0000 C   0  0  0  0  0  0  0  0  0  0  0  0
    3.6190    0.5848    0.0000 C   0  0  0  0  0  0  0  0  0  0  0  0
    2.9046    0.9973    0.0000 C   0  0  0  0  0  0  0  0  0  0  0  0
    4.3335    0.9973    0.0000 C   0  0  0  0  0  0  0  0  0  0  0  0
    2.9046    1.8223    0.0000 C   0  0  0  0  0  0  0  0  0  0  0  0
    3.6190    2.2348    0.0000 O   0  0  0  0  0  0  0  0  0  0  0  0
    2.1901    2.2348    0.0000 O   0  0  0  0  0  0  0  0  0  0  0  0
    1.3651   -0.2402    0.0000 C   0  0  1  0  0  0  0  0  0  0  0  0
    0.5629   -0.4328    0.0000 O   0  0  0  0  0  0  0  0  0  0  0  0
   -0.0050    0.1656    0.0000 C   0  0  0  0  0  0  0  0  0  0  0  0
    1.1725   -1.0424    0.0000 N   0  0  0  0  0  0  0  0  0  0  0  0
    0.3815   -1.2767    0.0000 C   0  0  0  0  0  0  0  0  0  0  0  0
   -0.2169   -0.7088    0.0000 O   0  0  0  0  0  0  0  0  0  0  0  0
    0.1889   -2.0789    0.0000 C   0  0  0  0  0  0  0  0  0  0  0  0
   -0.6021   -2.3132    0.0000 C   0  0  0  0  0  0  0  0  0  0  0  0
   -0.8775   -3.0909    0.0000 S   0  0  0  0  0  0  0  0  0  0  0  0
   -1.7022   -3.0693    0.0000 C   0  0  0  0  0  0  0  0  0  0  0  0
   -1.9366   -2.2783    0.0000 C   0  0  0  0  0  0  0  0  0  0  0  0
   -1.2567   -1.8110    0.0000 C   0  0  0  0  0  0  0  0  0  0  0  0
    4.3335    1.8223    0.0000 O   0  0  0  0  0  0  0  0  0  0  0  0
    5.0480    2.2348    0.0000 C   0  0  0  0  0  0  0  0  0  0  0  0
    5.0480    3.0598    0.0000 O   0  0  0  0  0  0  0  0  0  0  0  0
    5.7625    1.8223    0.0000 N   0  0  0  0  0  0  0  0  0  0  0  0
  1  2  2  0  0  0  0
  1  3  1  0  0  0  0
 13  1  1  0  0  0  0
  4  3  1  6  0  0  0
  8  3  1  0  0  0  0
  4  5  1  0  0  0  0
  4 13  1  0  0  0  0
  6  5  1  0  0  0  0
  7  6  1  0  0  0  0
  7  8  2  0  0  0  0
  7  9  1  0  0  0  0
  8 10  1  0  0  0  0
  9 25  1  0  0  0  0
 10 11  2  0  0  0  0
 10 12  1  0  0  0  0
 13 14  1  1  0  0  0
 13 16  1  6  0  0  0
 15 14  1  0  0  0  0
 17 16  1  0  0  0  0
 17 18  2  0  0  0  0
 17 19  1  0  0  0  0
 19 20  1  0  0  0  0
 20 21  1  0  0  0  0
 20 24  2  0  0  0  0
 22 21  1  0  0  0  0
 22 23  2  0  0  0  0
 23 24  1  0  0  0  0
 26 25  1  0  0  0  0
 26 27  2  0  0  0  0
 26 28  1  0  0  0  0
M  END
> <From>
www.bindingDB.org

> <BindingDB Reactant_set_id>
50619890

> <Ligand InChI>
InChI=1S/C16H17N3O7S2/c1-25-16(18-10(20)5-9-3-2-4-27-9)13(23)19-11(12(21)22)8(6-26-15(17)24)7-28-14(16)19/h2-4,14H,5-7H2,1H3,(H2,17,24)(H,18,20)(H,21,22)/t14-,16+/m1/s1

> <Ligand InChI Key>
WZOZEZRFJCJXNZ-ZBFHGGJFSA-N

> <BindingDB MonomerID>
50335563

> <BindingDB Ligand Name>
(6R,7R)-3-(carbamoyloxymethyl)-7-methoxy-8-oxo-7-(2-(thiophen-2-yl)acetamido)-5-thia-1-aza-bicyclo[4.2.0]oct-2-ene-2-carboxylic acid::(6R,7S)-3-(carbamoyloxymethyl)-7-methoxy-8-oxo-7-(2-(thiophen-2-yl)acetamido)-5-thia-1-aza-bicyclo[4.2.0]oct-2-ene-2-carboxylic acid::(6R,7S)-3-Carbamoyloxymethyl-7-methoxy-8-oxo-7-(2-thiophen-2-yl-acetylamino)-5-thia-1-aza-bicyclo[4.2.0]oct-2-ene-2-carboxylic acid::(6R,7S)-4-(carbamoyloxymethyl)-7-methoxy-8-oxo-7-(2-(thiophen-2-yl)acetamido)-5-thia-1-aza-bicyclo[4.2.0]oct-2-ene-2-carboxylic acid::(6S,7R)-3-(carbamoyloxymethyl)-7-methoxy-8-oxo-7-(2-(thiophen-2-yl)acetamido)-5-thia-1-aza-bicyclo[4.2.0]oct-2-ene-2-carboxylic acid::(6S,7R)-4-(carbamoyloxymethyl)-7-methoxy-8-oxo-7-(2-(thiophen-2-yl)acetamido)-5-thia-1-aza-bicyclo[4.2.0]oct-2-ene-2-carboxylic acid::3-Carbamoyloxymethyl-7-methoxy-8-oxo-7-(2-thiophen-2-yl-acetylamino)-5-thia-1-aza-bicyclo[4.2.0]oct-2-ene-2-carboxylic acid::3-Carbamoyloxymethyl-7-methoxy-8-oxo-7-(2-thiophen-2-yl-acetylamino)-5-thia-1-aza-bicyclo[4.2.0]oct-2-ene-2-carboxylic acid anion::3-Carbamoyloxymethyl-7-methoxy-8-oxo-7-(2-thiophen-3-yl-acetylamino)-5-thia-1-aza-bicyclo[4.2.0]oct-2-ene-2-carboxylic acid anion::CHEMBL996::Cefoxitin::Cefoxotin::Cenomycin::Mefoxin::Mefoxitin

> <Target Name>
Beta-lactamase

> <Target Source Organism According to Curator or DataSource>
Acinetobacter baumannii

> <Ki (nM)>
 100

> <IC50 (nM)>


> <Kd (nM)>


> <EC50 (nM)>


> <kon (M-1-s-1)>


> <koff (s-1)>


> <pH>


> <Temp C>


> <Curation/DataSource>
ChEMBL

> <Article DOI>
10.1128/AAC.00050-10

> <BindingDB Entry DOI>
10.7270/Q2348KM2

> <PMID>
20547808

> <PubChem AID>


> <Patent Number>


> <Authors>
Rodriguez-Martinez, JM; Nordmann, P; Ronco, E; Poirel, L

> <Institution>
Paris-Sud University

> <Link to Ligand in BindingDB>
http://www.bindingdb.org/bind/chemsearch/marvin/MolStructure.jsp?monomerid=50335563

> <Link to Ligand-Target Pair in BindingDB>
http://www.bindingdb.org/jsp/dbsearch/PrimarySearch_ki.jsp?energyterm=kJ/mole&tag=pol&polymerid=50004683&target=Beta-lactamase&column=ki&startPg=0&Increment=50&submit=Search

> <Link to Ligand-Target Pair in BindingDB>
http://www.bindingdb.org/jsp/dbsearch/PrimarySearch_ki.jsp?energyterm=kJ/mole&tag=r21&monomerid=50335563&enzyme=Beta-lactamase&column=ki&startPg=0&Increment=50&submit=Search

> <Ligand HET ID in PDB>
CFX

> <PDB ID(s) for Ligand-Target Complex>
4KOW

> <PubChem CID of Ligand>
441199

> <PubChem SID of Ligand>
125085665

> <ChEBI ID of Ligand>
209807

> <ChEMBL ID of Ligand>
CHEMBL996

> <DrugBank ID of Ligand>
DB01331

> <IUPHAR_GRAC ID of Ligand>


> <KEGG ID of Ligand>
C06887

> <ZINC ID of Ligand>
ZINC03830449

> <Number of Protein Chains in Target (bigger than 1 implies a multichain complex)>
1

> <BindingDB Target Chain Sequence>
LFIFNTSIYAGNTPKDQEIKKLVDQNFKPLLEKYDVPGMAVGVIQNNKKYEMYYGLQSVQDKKAVNSSTIFELGSVSKLFTATAGAYAKNKGKISFDDTPGKYWKELKNTPIDQVNLLQLATYTSGNLALQFPDEVQTDQQVLTFFKDWKPKNPIGEYRQYSNPSIGLFGKVVALSMNKPFDQVLEKIIFPALGLKHSYVNVAKTQMQNYAFGYNQENQPIRVNPGPLDAPAYGVKSTLPDMLSFIHANLNPQKYPADIQRAINETHQGRYQVNTMYQALGWEEFSYPATLQTLLDSNSEQIVMKPNKVTAISKEPSVKMYHKTGSTNGFGTYVVFIPKENIGLVMLTNKRIPNEERIK

> <PDB ID(s) of Target Chain>
4QD4,8CUP,8CUQ,8FQN,8FQO,8FQV,8FQW

> <UniProt (SwissProt) Recommended Name of Target Chain>


> <UniProt (SwissProt) Entry Name of Target Chain>


> <UniProt (SwissProt) Primary ID of Target Chain>


> <UniProt (SwissProt) Secondary ID(s) of Target Chain>


> <UniProt (SwissProt) Alternative ID(s) of Target Chain>


> <UniProt (TrEMBL) Submitted Name of Target Chain>
Beta-lactamase

> <UniProt (TrEMBL) Entry Name of Target Chain>
B2ZTR6_ACIBA

> <UniProt (TrEMBL) Primary ID of Target Chain>
B2ZTR6

> <UniProt (TrEMBL) Secondary ID(s) of Target Chain>


> <UniProt (TrEMBL) Alternative ID(s) of Target Chain>


$$$$

  Mrv0541 11191401012D          

 20 21  0  0  0  0            999 V2000
   -0.3830    1.8857    0.0000 C   0  0  0  0  0  0  0  0  0  0  0  0
   -1.0975    1.4732    0.0000 C   0  0  0  0  0  0  0  0  0  0  0  0
   -1.0975    0.6482    0.0000 C   0  0  0  0  0  0  0  0  0  0  0  0
   -0.3830    0.2357    0.0000 C   0  0  0  0  0  0  0  0  0  0  0  0
    0.3314    0.6482    0.0000 C   0  0  0  0  0  0  0  0  0  0  0  0
    0.3314    1.4732    0.0000 C   0  0  0  0  0  0  0  0  0  0  0  0
   -0.3830   -0.5893    0.0000 B   0  0  0  0  0  0  0  0  0  0  0  0
    0.3314   -1.0018    0.0000 O   0  0  0  0  0  0  0  0  0  0  0  0
   -1.0975   -1.0018    0.0000 O   0  0  0  0  0  0  0  0  0  0  0  0
    1.0459    1.8857    0.0000 N   0  0  0  0  0  0  0  0  0  0  0  0
    1.0459    2.7107    0.0000 S   0  0  0  0  0  0  0  0  0  0  0  0
    1.6293    3.2941    0.0000 C   0  0  0  0  0  0  0  0  0  0  0  0
    0.6334    3.4252    0.0000 O   0  0  0  0  0  0  0  0  0  0  0  0
    1.6951    2.2017    0.0000 O   0  0  0  0  0  0  0  0  0  0  0  0
    1.7583    4.1089    0.0000 C   0  0  0  0  0  0  0  0  0  0  0  0
    2.3643    2.9195    0.0000 C   0  0  0  0  0  0  0  0  0  0  0  0
    2.9477    3.5029    0.0000 O   0  0  0  0  0  0  0  0  0  0  0  0
    2.5731    4.2379    0.0000 N   0  0  0  0  0  0  0  0  0  0  0  0
    1.0438    4.5214    0.0000 C   0  0  0  0  0  0  0  0  0  0  0  0
    2.3643    2.0945    0.0000 C   0  0  0  0  0  0  0  0  0  0  0  0
  1  2  2  0  0  0  0
  2  3  1  0  0  0  0
  3  4  2  0  0  0  0
  4  5  1  0  0  0  0
  5  6  2  0  0  0  0
  1  6  1  0  0  0  0
  4  7  1  0  0  0  0
  7  8  1  0  0  0  0
  7  9  1  0  0  0  0
  6 10  1  0  0  0  0
 10 11  1  0  0  0  0
 11 12  1  0  0  0  0
 11 13  2  0  0  0  0
 11 14  2  0  0  0  0
 15 12  1  0  0  0  0
 12 16  2  0  0  0  0
 16 17  1  0  0  0  0
 17 18  1  0  0  0  0
 15 18  2  0  0  0  0
 15 19  1  0  0  0  0
 16 20  1  0  0  0  0
M  END
> <From>
www.bindingDB.org

> <BindingDB Reactant_set_id>
74805

> <Ligand InChI>
InChI=1S/C11H13BN2O5S/c1-7-11(8(2)19-13-7)20(17,18)14-10-5-3-4-9(6-10)12(15)16/h3-6,14-16H,1-2H3

> <Ligand InChI Key>
CRVGAEIHZPNGBB-UHFFFAOYSA-N

> <BindingDB MonomerID>
39819

> <BindingDB Ligand Name>
Amide and sulfonamide derivatives, 3

> <Target Name>
Beta-lactamase

> <Target Source Organism According to Curator or DataSource>
Escherichia coli

> <Ki (nM)>
 1.0e+2

> <IC50 (nM)>


> <Kd (nM)>


> <EC50 (nM)>


> <kon (M-1-s-1)>


> <koff (s-1)>


> <pH>
7

> <Temp C>


> <Curation/DataSource>
Curated from the literature by BindingDB

> <Article DOI>
10.1016/S1074-5521(01)00034-5

> <BindingDB Entry DOI>
10.7270/Q27M06BZ

> <PMID>
11410378

> <PubChem AID>
aid1799472

> <Patent Number>


> <Authors>
Tondi, D; Powers, RA; Caselli, E; Negri, MC; Bl&aacute;zquez, J; Costi, MP; Shoichet, BK

> <Institution>
Northwestern University

> <Link to Ligand in BindingDB>
http://www.bindingdb.org/bind/chemsearch/marvin/MolStructure.jsp?monomerid=39819

> <Link to Ligand-Target Pair in BindingDB>
http://www.bindingdb.org/jsp/dbsearch/PrimarySearch_ki.jsp?energyterm=kJ/mole&tag=pol&polymerid=4401&target=Beta-lactamase&column=ki&startPg=0&Increment=50&submit=Search

> <Link to Ligand-Target Pair in BindingDB>
http://www.bindingdb.org/jsp/dbsearch/PrimarySearch_ki.jsp?energyterm=kJ/mole&tag=r21&monomerid=39819&enzyme=Beta-lactamase&column=ki&startPg=0&Increment=50&submit=Search

> <Ligand HET ID in PDB>


> <PDB ID(s) for Ligand-Target Complex>


> <PubChem CID of Ligand>
46890018

> <PubChem SID of Ligand>
123080127

> <ChEBI ID of Ligand>


> <ChEMBL ID of Ligand>


> <DrugBank ID of Ligand>


> <IUPHAR_GRAC ID of Ligand>


> <KEGG ID of Ligand>


> <ZINC ID of Ligand>


> <Number of Protein Chains in Target (bigger than 1 implies a multichain complex)>
1

> <BindingDB Target Chain Sequence>
MFKTTLCALLITASCSTFAAPQQINDIVHRTITPLIEQQKIPGMAVAVIYQGKPYYFTWGYADIAKKQPVTQQTLFELGSVSKTFTGVLGGDAIARGEIKLSDPTTKYWPELTAKQWNGITLLHLATYTAGGLPLQVPDEVKSSSDLLRFYQNWQPAWAPGTQRLYANSSIGLFGALAVKPSGLSFEQAMQTRVFQPLKLNHTWINVPPAEEKNYAWGYREGKAVHVSPGALDAEAYGVKSTIEDMARWVQSNLKPLDINEKTLQQGIQLAQSRYWQTGDMYQGLGWEMLDWPVNPDSIINGSDNKIALAARPVKAITPPTPAVRASWVHKTGATGGFGSYVAFIPEKELGIVMLANKNYPNPARVDAAWQILNALQ

> <PDB ID(s) of Target Chain>
1C3B,1FCO,1FSW,1FSY,1GA9,1IEL,1IEM,1KDS,1KDW,1KE0,1KE3,1KE4,1KVM,1L2S,1LL5,1LL9,1LLB,1MXO,1MY8,1XGI,1XGJ,2BLS,2HDQ,2HDR,2HDS,2HDU,2I72,2P9V,2PU2,2PU4,2R9W,2R9X,2RCX,3BLS,3BM6,3GQZ,3GR2,3GRJ,3GSG,3GTC,3GV9,3GVB,3O86,3O87,3O88,4E3I,4E3J,4E3K,4E3L,4E3M,4E3N,4E3O,4JXG,4JXS,4JXV,4JXW,4KG2,4KZ3,4KZ4,4KZ5,4KZ6,4KZ7,4KZ8,4KZ9,4KZA,4KZB,4LV0,4LV1,4LV2,4LV3,4OKP,4OLD,4OLG,6DPT,6DPX,6DPY,6DPZ,6T35,6T3D,6T5Y,6T7L,6TBW,6TPM,6WGQ,6YEN,6YEO,6YPD

> <UniProt (SwissProt) Recommended Name of Target Chain>
Beta-lactamase

> <UniProt (SwissProt) Entry Name of Target Chain>
AMPC_ECOLI

> <UniProt (SwissProt) Primary ID of Target Chain>
P00811

> <UniProt (SwissProt) Secondary ID(s) of Target Chain>
Q2M6F2

> <UniProt (SwissProt) Alternative ID(s) of Target Chain>


> <UniProt (TrEMBL) Submitted Name of Target Chain>


> <UniProt (TrEMBL) Entry Name of Target Chain>


> <UniProt (TrEMBL) Primary ID of Target Chain>


> <UniProt (TrEMBL) Secondary ID(s) of Target Chain>


> <UniProt (TrEMBL) Alternative ID(s) of Target Chain>


$$$$

     RDKit          2D

 18 18  0  0  0  0  0  0  0  0999 V2000
   -0.6757   -0.0110    0.0000 C   0  0  0  0  0  0  0  0  0  0  0  0
   -0.6757   -0.8360    0.0000 C   0  0  0  0  0  0  0  0  0  0  0  0
   -1.3902   -1.2485    0.0000 N   0  0  0  0  0  0  0  0  0  0  0  0
   -1.3902   -2.0735    0.0000 C   0  0  0  0  0  0  0  0  0  0  0  0
   -2.1047   -2.4860    0.0000 C   0  0  0  0  0  0  0  0  0  0  0  0
   -0.6757   -2.4860    0.0000 O   0  0  0  0  0  0  0  0  0  0  0  0
    0.7532    2.4640    0.0000 C   0  0  0  0  0  0  0  0  0  0  0  0
    0.0387    2.8765    0.0000 O   0  0  0  0  0  0  0  0  0  0  0  0
    1.4677    2.8765    0.0000 O   0  0  0  0  0  0  0  0  0  0  0  0
    0.0388   -1.2485    0.0000 B   0  0  0  0  0  0  0  0  0  0  0  0
    0.7532   -0.8360    0.0000 O   0  0  0  0  0  0  0  0  0  0  0  0
    0.7532   -0.0110    0.0000 C   0  0  0  0  0  0  0  0  0  0  0  0
    0.0388    0.4015    0.0000 C   0  0  0  0  0  0  0  0  0  0  0  0
    1.4677    0.4015    0.0000 C   0  0  0  0  0  0  0  0  0  0  0  0
    0.0387    1.2265    0.0000 C   0  0  0  0  0  0  0  0  0  0  0  0
    1.4677    1.2265    0.0000 C   0  0  0  0  0  0  0  0  0  0  0  0
    0.7532    1.6390    0.0000 C   0  0  0  0  0  0  0  0  0  0  0  0
    0.0388   -2.0735    0.0000 O   0  0  0  0  0  0  0  0  0  0  0  0
  2  1  1  0
  1 13  1  0
  2  3  1  0
  2 10  1  1
  4  3  1  0
  4  5  1  0
  4  6  2  0
  7  8  1  0
  7  9  2  0
  7 17  1  0
 10 11  1  0
 10 18  1  0
 13 12  2  0
 12 14  1  0
 15 13  1  0
 14 16  2  0
 15 17  2  0
 16 17  1  0
M  END
> <From>
www.bindingDB.org

> <BindingDB Reactant_set_id>
51292566

> <Ligand InChI>
InChI=1S/C11H14BNO5/c1-7(14)13-10(12(17)18)6-8-3-2-4-9(5-8)11(15)16/h2-5,10,17-18H,6H2,1H3,(H,13,14)(H,15,16)/t10-/m0/s1

> <Ligand InChI Key>
OBZSRKUYUGJGIM-JTQLQIEISA-N

> <BindingDB MonomerID>
50526862

> <BindingDB Ligand Name>
CHEMBL1231367

> <Target Name>
Beta-lactamase TEM

> <Target Source Organism According to Curator or DataSource>


> <Ki (nM)>
 110

> <IC50 (nM)>


> <Kd (nM)>


> <EC50 (nM)>


> <kon (M-1-s-1)>


> <koff (s-1)>


> <pH>


> <Temp C>


> <Curation/DataSource>
ChEMBL

> <Article DOI>
10.1021/acs.jmedchem.9b01279

> <BindingDB Entry DOI>
10.7270/Q27P92V4

> <PMID>
31663735

> <PubChem AID>


> <Patent Number>


> <Authors>
Gonz치lez-Bello, C; Rodr칤guez, D; Pernas, M; Rodr칤guez, 츼; Colch칩n, E

> <Institution>
Universidade de Santiago de Compostela

> <Link to Ligand in BindingDB>
http://www.bindingdb.org/bind/chemsearch/marvin/MolStructure.jsp?monomerid=50526862

> <Link to Ligand-Target Pair in BindingDB>
http://www.bindingdb.org/jsp/dbsearch/PrimarySearch_ki.jsp?energyterm=kJ/mole&tag=pol&polymerid=7704&target=Beta-lactamase+TEM&column=ki&startPg=0&Increment=50&submit=Search

> <Link to Ligand-Target Pair in BindingDB>
http://www.bindingdb.org/jsp/dbsearch/PrimarySearch_ki.jsp?energyterm=kJ/mole&tag=r21&monomerid=50526862&enzyme=Beta-lactamase+TEM&column=ki&startPg=0&Increment=50&submit=Search

> <Ligand HET ID in PDB>
BJI

> <PDB ID(s) for Ligand-Target Complex>
1ERM

> <PubChem CID of Ligand>
5287795

> <PubChem SID of Ligand>
440735444

> <ChEBI ID of Ligand>


> <ChEMBL ID of Ligand>


> <DrugBank ID of Ligand>


> <IUPHAR_GRAC ID of Ligand>


> <KEGG ID of Ligand>


> <ZINC ID of Ligand>


> <Number of Protein Chains in Target (bigger than 1 implies a multichain complex)>
1

> <BindingDB Target Chain Sequence>
MSIQHFRVALIPFFAAFCLPVFAHPETLVKVKDAEDQLGARVGYIELDLNSGKILESFRPEERFPMMSTFKVLLCGAVLSRVDAGQEQLGRRIHYSQNDLVEYSPVTEKHLTDGMTVRELCSAAITMSDNTAANLLLTTIGGPKELTAFLHNMGDHVTRLDRWEPELNEAIPNDERDTTMPAAMATTLRKLLTGELLTLASRQQLIDWMEADKVAGPLLRSALPAGWFIADKSGAGERGSRGIIAALGPDGKPSRIVVIYTTGSQATMDERNRQIAEIGASLIKHW

> <PDB ID(s) of Target Chain>
1ERM,1ERO,1ERQ,1ESU,1FQG,1JTD,1JVJ,1JWP,1JWV,1LHY,1LI9,1M40,1NXY,1NY0,1NYM,1NYY,1PZO,1PZP,1S0W,1XPB,1YT4,2V1Z,2V20,3CMZ,3DTM,3JYI,3P98,4DXB,4DXC,4GKU,4ZJ2,5AQ8,5HVI,5HW1,5HW5,5NPO,6B2N,7QLP,7QNK,7U6Q,8DE0

> <UniProt (SwissProt) Recommended Name of Target Chain>
Beta-lactamase TEM

> <UniProt (SwissProt) Entry Name of Target Chain>
BLAT_ECOLX

> <UniProt (SwissProt) Primary ID of Target Chain>
P62593

> <UniProt (SwissProt) Secondary ID(s) of Target Chain>
P00810 Q47313

> <UniProt (SwissProt) Alternative ID(s) of Target Chain>


> <UniProt (TrEMBL) Submitted Name of Target Chain>


> <UniProt (TrEMBL) Entry Name of Target Chain>


> <UniProt (TrEMBL) Primary ID of Target Chain>


> <UniProt (TrEMBL) Secondary ID(s) of Target Chain>


> <UniProt (TrEMBL) Alternative ID(s) of Target Chain>


$$$$

  Mrv0541 11191401012D          

 27 29  0  0  0  0            999 V2000
   -0.3830    1.8857    0.0000 C   0  0  0  0  0  0  0  0  0  0  0  0
   -1.0975    1.4732    0.0000 C   0  0  0  0  0  0  0  0  0  0  0  0
   -1.0975    0.6482    0.0000 C   0  0  0  0  0  0  0  0  0  0  0  0
   -0.3830    0.2357    0.0000 C   0  0  0  0  0  0  0  0  0  0  0  0
    0.3314    0.6482    0.0000 C   0  0  0  0  0  0  0  0  0  0  0  0
    0.3314    1.4732    0.0000 C   0  0  0  0  0  0  0  0  0  0  0  0
   -0.3830   -0.5893    0.0000 B   0  0  0  0  0  0  0  0  0  0  0  0
    0.3314   -1.0018    0.0000 O   0  0  0  0  0  0  0  0  0  0  0  0
   -1.0975   -1.0018    0.0000 O   0  0  0  0  0  0  0  0  0  0  0  0
    1.0459    1.8857    0.0000 N   0  0  0  0  0  0  0  0  0  0  0  0
    1.0459    2.7107    0.0000 S   0  0  0  0  0  0  0  0  0  0  0  0
    1.6293    3.2941    0.0000 C   0  0  0  0  0  0  0  0  0  0  0  0
    0.6334    3.4252    0.0000 O   0  0  0  0  0  0  0  0  0  0  0  0
    1.6951    2.2017    0.0000 O   0  0  0  0  0  0  0  0  0  0  0  0
    1.7583    4.1089    0.0000 S   0  0  0  0  0  0  0  0  0  0  0  0
    2.3643    2.9195    0.0000 C   0  0  0  0  0  0  0  0  0  0  0  0
    2.9477    3.5029    0.0000 C   0  0  0  0  0  0  0  0  0  0  0  0
    2.5731    4.2379    0.0000 C   0  0  0  0  0  0  0  0  0  0  0  0
    2.9477    4.9730    0.0000 S   0  0  0  0  0  0  0  0  0  0  0  0
    2.4984    5.6649    0.0000 O   0  0  0  0  0  0  0  0  0  0  0  0
    3.7716    5.0162    0.0000 C   0  0  0  0  0  0  0  0  0  0  0  0
    3.3602    4.2586    0.0000 O   0  0  0  0  0  0  0  0  0  0  0  0
    4.1841    5.7307    0.0000 C   0  0  0  0  0  0  0  0  0  0  0  0
    4.1841    4.3017    0.0000 C   0  0  0  0  0  0  0  0  0  0  0  0
    5.0091    4.3017    0.0000 C   0  0  0  0  0  0  0  0  0  0  0  0
    5.4216    5.0162    0.0000 C   0  0  0  0  0  0  0  0  0  0  0  0
    5.0091    5.7307    0.0000 C   0  0  0  0  0  0  0  0  0  0  0  0
  1  2  2  0  0  0  0
  2  3  1  0  0  0  0
  3  4  2  0  0  0  0
  4  5  1  0  0  0  0
  5  6  2  0  0  0  0
  1  6  1  0  0  0  0
  4  7  1  0  0  0  0
  7  8  1  0  0  0  0
  7  9  1  0  0  0  0
  6 10  1  0  0  0  0
 10 11  1  0  0  0  0
 11 12  1  0  0  0  0
 11 13  2  0  0  0  0
 11 14  2  0  0  0  0
 15 12  1  0  0  0  0
 12 16  2  0  0  0  0
 16 17  1  0  0  0  0
 17 18  2  0  0  0  0
 15 18  1  0  0  0  0
 18 19  1  0  0  0  0
 19 20  2  0  0  0  0
 19 21  1  0  0  0  0
 19 22  2  0  0  0  0
 23 21  2  0  0  0  0
 21 24  1  0  0  0  0
 24 25  2  0  0  0  0
 25 26  1  0  0  0  0
 26 27  2  0  0  0  0
 23 27  1  0  0  0  0
M  END
> <From>
www.bindingDB.org

> <BindingDB Reactant_set_id>
74806

> <Ligand InChI>
InChI=1S/C16H14BNO6S3/c19-17(20)12-5-4-6-13(11-12)18-27(23,24)16-10-9-15(25-16)26(21,22)14-7-2-1-3-8-14/h1-11,18-20H

> <Ligand InChI Key>
QASOKUNWMKKJOJ-UHFFFAOYSA-N

> <BindingDB MonomerID>
39820

> <BindingDB Ligand Name>
Amide and sulfonamide derivatives, 4

> <Target Name>
Beta-lactamase

> <Target Source Organism According to Curator or DataSource>
Escherichia coli

> <Ki (nM)>
 1.2e+2

> <IC50 (nM)>


> <Kd (nM)>


> <EC50 (nM)>


> <kon (M-1-s-1)>


> <koff (s-1)>


> <pH>
7

> <Temp C>


> <Curation/DataSource>
Curated from the literature by BindingDB

> <Article DOI>
10.1016/S1074-5521(01)00034-5

> <BindingDB Entry DOI>
10.7270/Q27M06BZ

> <PMID>
11410378

> <PubChem AID>
aid1799472

> <Patent Number>


> <Authors>
Tondi, D; Powers, RA; Caselli, E; Negri, MC; Bl&aacute;zquez, J; Costi, MP; Shoichet, BK

> <Institution>
Northwestern University

> <Link to Ligand in BindingDB>
http://www.bindingdb.org/bind/chemsearch/marvin/MolStructure.jsp?monomerid=39820

> <Link to Ligand-Target Pair in BindingDB>
http://www.bindingdb.org/jsp/dbsearch/PrimarySearch_ki.jsp?energyterm=kJ/mole&tag=pol&polymerid=4401&target=Beta-lactamase&column=ki&startPg=0&Increment=50&submit=Search

> <Link to Ligand-Target Pair in BindingDB>
http://www.bindingdb.org/jsp/dbsearch/PrimarySearch_ki.jsp?energyterm=kJ/mole&tag=r21&monomerid=39820&enzyme=Beta-lactamase&column=ki&startPg=0&Increment=50&submit=Search

> <Ligand HET ID in PDB>


> <PDB ID(s) for Ligand-Target Complex>


> <PubChem CID of Ligand>
52939991

> <PubChem SID of Ligand>
123080128

> <ChEBI ID of Ligand>


> <ChEMBL ID of Ligand>


> <DrugBank ID of Ligand>


> <IUPHAR_GRAC ID of Ligand>


> <KEGG ID of Ligand>


> <ZINC ID of Ligand>


> <Number of Protein Chains in Target (bigger than 1 implies a multichain complex)>
1

> <BindingDB Target Chain Sequence>
MFKTTLCALLITASCSTFAAPQQINDIVHRTITPLIEQQKIPGMAVAVIYQGKPYYFTWGYADIAKKQPVTQQTLFELGSVSKTFTGVLGGDAIARGEIKLSDPTTKYWPELTAKQWNGITLLHLATYTAGGLPLQVPDEVKSSSDLLRFYQNWQPAWAPGTQRLYANSSIGLFGALAVKPSGLSFEQAMQTRVFQPLKLNHTWINVPPAEEKNYAWGYREGKAVHVSPGALDAEAYGVKSTIEDMARWVQSNLKPLDINEKTLQQGIQLAQSRYWQTGDMYQGLGWEMLDWPVNPDSIINGSDNKIALAARPVKAITPPTPAVRASWVHKTGATGGFGSYVAFIPEKELGIVMLANKNYPNPARVDAAWQILNALQ

> <PDB ID(s) of Target Chain>
1C3B,1FCO,1FSW,1FSY,1GA9,1IEL,1IEM,1KDS,1KDW,1KE0,1KE3,1KE4,1KVM,1L2S,1LL5,1LL9,1LLB,1MXO,1MY8,1XGI,1XGJ,2BLS,2HDQ,2HDR,2HDS,2HDU,2I72,2P9V,2PU2,2PU4,2R9W,2R9X,2RCX,3BLS,3BM6,3GQZ,3GR2,3GRJ,3GSG,3GTC,3GV9,3GVB,3O86,3O87,3O88,4E3I,4E3J,4E3K,4E3L,4E3M,4E3N,4E3O,4JXG,4JXS,4JXV,4JXW,4KG2,4KZ3,4KZ4,4KZ5,4KZ6,4KZ7,4KZ8,4KZ9,4KZA,4KZB,4LV0,4LV1,4LV2,4LV3,4OKP,4OLD,4OLG,6DPT,6DPX,6DPY,6DPZ,6T35,6T3D,6T5Y,6T7L,6TBW,6TPM,6WGQ,6YEN,6YEO,6YPD

> <UniProt (SwissProt) Recommended Name of Target Chain>
Beta-lactamase

> <UniProt (SwissProt) Entry Name of Target Chain>
AMPC_ECOLI

> <UniProt (SwissProt) Primary ID of Target Chain>
P00811

> <UniProt (SwissProt) Secondary ID(s) of Target Chain>
Q2M6F2

> <UniProt (SwissProt) Alternative ID(s) of Target Chain>


> <UniProt (TrEMBL) Submitted Name of Target Chain>


> <UniProt (TrEMBL) Entry Name of Target Chain>


> <UniProt (TrEMBL) Primary ID of Target Chain>


> <UniProt (TrEMBL) Secondary ID(s) of Target Chain>


> <UniProt (TrEMBL) Alternative ID(s) of Target Chain>


$$$$

  Mrv0541 11211418172D          

 28 30  0  0  0  0            999 V2000
    4.4285   -2.0141    0.0000 C   0  0  0  0  0  0  0  0  0  0  0  0
    5.2541   -2.8397    0.0000 N   0  0  0  0  0  0  0  0  0  0  0  0
    4.4285   -2.8397    0.0000 C   0  0  0  0  0  0  0  0  0  0  0  0
    5.2541   -2.0183    0.0000 C   0  0  0  0  0  0  0  0  0  0  0  0
    5.9589   -3.2526    0.0000 C   0  0  0  0  0  0  0  0  0  0  0  0
    5.9589   -1.6013    0.0000 S   0  0  0  0  0  0  0  0  0  0  0  0
    3.7196   -1.5930    0.0000 N   0  0  0  0  0  0  0  0  0  0  0  0
    6.6720   -2.8439    0.0000 C   0  0  0  0  0  0  0  0  0  0  0  0
    5.9589   -4.0699    0.0000 C   0  0  0  0  0  0  0  0  0  0  0  0
    2.9941   -1.9933    0.0000 C   0  0  0  0  0  0  0  0  0  0  0  0
    8.7361   -3.5570    0.0000 C   0  0  0  0  0  0  0  0  0  0  0  0
    2.2893   -1.5679    0.0000 C   0  0  0  0  0  0  0  0  0  0  0  0
    1.5679   -1.9683    0.0000 C   0  0  0  0  0  0  0  0  0  0  0  0
    6.6720   -2.0141    0.0000 C   0  0  0  0  0  0  0  0  0  0  0  0
    3.8405   -3.4194    0.0000 O   0  0  0  0  0  0  0  0  0  0  0  0
    0.8173   -1.6138    0.0000 S   0  0  0  0  0  0  0  0  0  0  0  0
    4.6412   -1.2135    0.0000 O   0  0  0  0  0  0  0  0  0  0  0  0
    7.4976   -2.8439    0.0000 C   0  0  0  0  0  0  0  0  0  0  0  0
    6.6803   -4.4910    0.0000 O   0  5  0  0  0  0  0  0  0  0  0  0
    7.9104   -3.5570    0.0000 O   0  0  0  0  0  0  0  0  0  0  0  0
    0.2544   -2.2184    0.0000 C   0  0  0  0  0  0  0  0  0  0  0  0
    9.1489   -4.2701    0.0000 O   0  0  0  0  0  0  0  0  0  0  0  0
    5.2458   -4.4910    0.0000 O   0  0  0  0  0  0  0  0  0  0  0  0
    2.9815   -2.8189    0.0000 O   0  0  0  0  0  0  0  0  0  0  0  0
    1.4637   -2.7814    0.0000 C   0  0  0  0  0  0  0  0  0  0  0  0
    0.6547   -2.9398    0.0000 C   0  0  0  0  0  0  0  0  0  0  0  0
    9.1489   -2.8439    0.0000 N   0  0  0  0  0  0  0  0  0  0  0  0
    5.4335   -1.0008    0.0000 C   0  0  0  0  0  0  0  0  0  0  0  0
  2  4  1  0  0  0  0
  3  1  1  0  0  0  0
  4  1  1  0  0  0  0
  5  2  1  0  0  0  0
  6  4  1  0  0  0  0
  7  1  1  0  0  0  0
  8 14  1  0  0  0  0
  9  5  1  0  0  0  0
 10  7  1  0  0  0  0
 11 20  1  0  0  0  0
 12 10  1  0  0  0  0
 13 12  1  0  0  0  0
 14  6  1  0  0  0  0
 15  3  2  0  0  0  0
 16 13  1  0  0  0  0
 17  1  1  0  0  0  0
 18  8  1  0  0  0  0
 19  9  1  0  0  0  0
 20 18  1  0  0  0  0
 21 16  1  0  0  0  0
 22 11  2  0  0  0  0
 23  9  2  0  0  0  0
 24 10  2  0  0  0  0
 25 13  2  0  0  0  0
 26 25  1  0  0  0  0
 27 11  1  0  0  0  0
 28 17  1  0  0  0  0
  2  3  1  0  0  0  0
  5  8  2  0  0  0  0
 26 21  2  0  0  0  0
M  CHG  1  19  -1
M  END
> <From>
www.bindingDB.org

> <BindingDB Reactant_set_id>
50382890

> <Ligand InChI>
InChI=1S/C16H17N3O7S2/c1-25-16(18-10(20)5-9-3-2-4-27-9)13(23)19-11(12(21)22)8(6-26-15(17)24)7-28-14(16)19/h2-4,14H,5-7H2,1H3,(H2,17,24)(H,18,20)(H,21,22)/p-1

> <Ligand InChI Key>
WZOZEZRFJCJXNZ-UHFFFAOYSA-M

> <BindingDB MonomerID>
50169176

> <BindingDB Ligand Name>
(6R,7R)-3-(carbamoyloxymethyl)-7-methoxy-8-oxo-7-(2-(thiophen-2-yl)acetamido)-5-thia-1-aza-bicyclo[4.2.0]oct-2-ene-2-carboxylic acid::(6R,7S)-3-(carbamoyloxymethyl)-7-methoxy-8-oxo-7-(2-(thiophen-2-yl)acetamido)-5-thia-1-aza-bicyclo[4.2.0]oct-2-ene-2-carboxylic acid::(6R,7S)-3-Carbamoyloxymethyl-7-methoxy-8-oxo-7-(2-thiophen-2-yl-acetylamino)-5-thia-1-aza-bicyclo[4.2.0]oct-2-ene-2-carboxylic acid::(6R,7S)-4-(carbamoyloxymethyl)-7-methoxy-8-oxo-7-(2-(thiophen-2-yl)acetamido)-5-thia-1-aza-bicyclo[4.2.0]oct-2-ene-2-carboxylic acid::(6S,7R)-3-(carbamoyloxymethyl)-7-methoxy-8-oxo-7-(2-(thiophen-2-yl)acetamido)-5-thia-1-aza-bicyclo[4.2.0]oct-2-ene-2-carboxylic acid::(6S,7R)-4-(carbamoyloxymethyl)-7-methoxy-8-oxo-7-(2-(thiophen-2-yl)acetamido)-5-thia-1-aza-bicyclo[4.2.0]oct-2-ene-2-carboxylic acid::3-Carbamoyloxymethyl-7-methoxy-8-oxo-7-(2-thiophen-2-yl-acetylamino)-5-thia-1-aza-bicyclo[4.2.0]oct-2-ene-2-carboxylic acid::3-Carbamoyloxymethyl-7-methoxy-8-oxo-7-(2-thiophen-2-yl-acetylamino)-5-thia-1-aza-bicyclo[4.2.0]oct-2-ene-2-carboxylic acid anion::3-Carbamoyloxymethyl-7-methoxy-8-oxo-7-(2-thiophen-3-yl-acetylamino)-5-thia-1-aza-bicyclo[4.2.0]oct-2-ene-2-carboxylic acid anion::CEFOXITIN::CHEMBL996::Mefoxin

> <Target Name>
Beta-lactamase

> <Target Source Organism According to Curator or DataSource>
Citrobacter freundii

> <Ki (nM)>
 140

> <IC50 (nM)>


> <Kd (nM)>


> <EC50 (nM)>


> <kon (M-1-s-1)>


> <koff (s-1)>


> <pH>


> <Temp C>


> <Curation/DataSource>
ChEMBL

> <Article DOI>
10.1128/AAC.01395-06

> <BindingDB Entry DOI>
10.7270/Q24X57J4

> <PMID>
17438050

> <PubChem AID>


> <Patent Number>


> <Authors>
Power, P; Di Conza, J; Rodriguez, MM; Ghiglione, B; Ayala, JA; Casellas, JM; Radice, M; Gutkind, G

> <Institution>
Universidad de Buenos Aires

> <Link to Ligand in BindingDB>
http://www.bindingdb.org/bind/chemsearch/marvin/MolStructure.jsp?monomerid=50169176

> <Link to Ligand-Target Pair in BindingDB>
http://www.bindingdb.org/jsp/dbsearch/PrimarySearch_ki.jsp?energyterm=kJ/mole&tag=pol&polymerid=50003889&target=Beta-lactamase&column=ki&startPg=0&Increment=50&submit=Search

> <Link to Ligand-Target Pair in BindingDB>
http://www.bindingdb.org/jsp/dbsearch/PrimarySearch_ki.jsp?energyterm=kJ/mole&tag=r21&monomerid=50169176&enzyme=Beta-lactamase&column=ki&startPg=0&Increment=50&submit=Search

> <Ligand HET ID in PDB>


> <PDB ID(s) for Ligand-Target Complex>


> <PubChem CID of Ligand>
2637

> <PubChem SID of Ligand>
104054006

> <ChEBI ID of Ligand>
29067

> <ChEMBL ID of Ligand>
CHEMBL996

> <DrugBank ID of Ligand>


> <IUPHAR_GRAC ID of Ligand>


> <KEGG ID of Ligand>


> <ZINC ID of Ligand>
ZINC03830452

> <Number of Protein Chains in Target (bigger than 1 implies a multichain complex)>
1

> <BindingDB Target Chain Sequence>
MNVITKCVFTASALLMLGLSSFVVSAQSPLLKEQIETIVTGKKATVGVAVWGPDDLEPLLLNPFEKFPMQSVFKLHLAMLVLHQVDQGKLDLNQSVTVNRAAVLQNTWSPMMKDHQGDEFTVAVQQLLQYSVSHSDNVACDLLFELVGGPQALHAYIQSLGVKEAAVVANEAQMHADDQVQYQNWTSMKAAAQVLQKFEQKKQLSETSQALLWKWMVETTTGPQRLKGLLPAGTIVAHKTGTSGVRAGKTAATNDAGVIMLPDGRPLLVAVFVKDSAESERTNEAIIAQVAQAAYQFELKKLSAVSPD

> <PDB ID(s) of Target Chain>
4D2O,6D3G,6DGU

> <UniProt (SwissProt) Recommended Name of Target Chain>


> <UniProt (SwissProt) Entry Name of Target Chain>


> <UniProt (SwissProt) Primary ID of Target Chain>


> <UniProt (SwissProt) Secondary ID(s) of Target Chain>


> <UniProt (SwissProt) Alternative ID(s) of Target Chain>


> <UniProt (TrEMBL) Submitted Name of Target Chain>
Beta-lactamase

> <UniProt (TrEMBL) Entry Name of Target Chain>
A2RP81_CITFR

> <UniProt (TrEMBL) Primary ID of Target Chain>
A2RP81

> <UniProt (TrEMBL) Secondary ID(s) of Target Chain>


> <UniProt (TrEMBL) Alternative ID(s) of Target Chain>


$$$$

  Mrv0541 11211411482D          

 20 21  0  0  0  0            999 V2000
    0.7057   -0.6305    0.0000 C   0  0  0  0  0  0  0  0  0  0  0  0
    1.3821   -1.1190    0.0000 C   0  0  0  0  0  0  0  0  0  0  0  0
    0.0418   -1.1190    0.0000 N   0  0  0  0  0  0  0  0  0  0  0  0
    0.7057    0.1962    0.0000 C   0  0  0  0  0  0  0  0  0  0  0  0
    2.1837   -0.9437    0.0000 C   0  0  0  0  0  0  0  0  0  0  0  0
    0.3006   -1.9081    0.0000 O   0  0  0  0  0  0  0  0  0  0  0  0
    1.1273   -1.9039    0.0000 C   0  0  0  0  0  0  0  0  0  0  0  0
    2.7349   -1.5574    0.0000 N   0  0  0  0  0  0  0  0  0  0  0  0
    4.0877   -2.0084    0.0000 B   0  0  0  0  0  0  0  0  0  0  0  0
    3.5365   -1.3904    0.0000 C   0  0  0  0  0  0  0  0  0  0  0  0
   -0.0083    0.6096    0.0000 C   0  0  0  0  0  0  0  0  0  0  0  0
    2.4342   -0.1545    0.0000 O   0  0  0  0  0  0  0  0  0  0  0  0
    4.8851   -1.7912    0.0000 O   0  0  0  0  0  0  0  0  0  0  0  0
    3.8246   -2.7850    0.0000 O   0  0  0  0  0  0  0  0  0  0  0  0
   -0.7265    0.1962    0.0000 Cl  0  0  0  0  0  0  0  0  0  0  0  0
    1.4196    0.6096    0.0000 C   0  0  0  0  0  0  0  0  0  0  0  0
    1.6702   -2.5177    0.0000 C   0  0  0  0  0  0  0  0  0  0  0  0
   -0.0083    1.4363    0.0000 C   0  0  0  0  0  0  0  0  0  0  0  0
    1.4196    1.4363    0.0000 C   0  0  0  0  0  0  0  0  0  0  0  0
    0.7057    1.8496    0.0000 C   0  0  0  0  0  0  0  0  0  0  0  0
  2  1  1  0  0  0  0
  3  1  2  0  0  0  0
  4  1  1  0  0  0  0
  5  2  1  0  0  0  0
  6  3  1  0  0  0  0
  7  2  2  0  0  0  0
  8  5  1  0  0  0  0
  9 10  1  0  0  0  0
 10  8  1  0  0  0  0
 11  4  2  0  0  0  0
 12  5  2  0  0  0  0
 13  9  1  0  0  0  0
 14  9  1  0  0  0  0
 15 11  1  0  0  0  0
 16  4  1  0  0  0  0
 17  7  1  0  0  0  0
 18 11  1  0  0  0  0
 19 16  2  0  0  0  0
 20 19  1  0  0  0  0
  7  6  1  0  0  0  0
 18 20  2  0  0  0  0
M  END
> <From>
www.bindingDB.org

> <BindingDB Reactant_set_id>
74786

> <Ligand InChI>
InChI=1S/C12H12BClN2O4/c1-7-10(12(17)15-6-13(18)19)11(16-20-7)8-4-2-3-5-9(8)14/h2-5,18-19H,6H2,1H3,(H,15,17)

> <Ligand InChI Key>
LSXNXXCBOPILJR-UHFFFAOYSA-N

> <BindingDB MonomerID>
50115620

> <BindingDB Ligand Name>
3-(2-Chloro-phenyl)-5-methyl-2,3-dihydro-isoxazole-4-carboxylic acid dihydroxyboranylmethyl-amide::Acylglycineboronic acid, 9::CHEMBL324688::N-[5-METHYL-3-O-TOLYL-ISOXAZOLE-4-CARBOXYLIC ACID AMIDE] BORONIC ACID

> <Target Name>
Beta-lactamase

> <Target Source Organism According to Curator or DataSource>
Escherichia coli

> <Ki (nM)>
 150

> <IC50 (nM)>


> <Kd (nM)>


> <EC50 (nM)>


> <kon (M-1-s-1)>


> <koff (s-1)>


> <pH>
7

> <Temp C>


> <Curation/DataSource>
Curated from the literature by BindingDB

> <Article DOI>
10.1016/S1074-5521(00)00052-1

> <BindingDB Entry DOI>
10.7270/Q2CC0Z3R

> <PMID>
11182316

> <PubChem AID>
aid1799471

> <Patent Number>


> <Authors>
Caselli, E; Powers, RA; Blasczcak, LC; Wu, CY; Prati, F; Shoichet, BK

> <Institution>
Northwestern University

> <Link to Ligand in BindingDB>
http://www.bindingdb.org/bind/chemsearch/marvin/MolStructure.jsp?monomerid=50115620

> <Link to Ligand-Target Pair in BindingDB>
http://www.bindingdb.org/jsp/dbsearch/PrimarySearch_ki.jsp?energyterm=kJ/mole&tag=pol&polymerid=4401&target=Beta-lactamase&column=ki&startPg=0&Increment=50&submit=Search

> <Link to Ligand-Target Pair in BindingDB>
http://www.bindingdb.org/jsp/dbsearch/PrimarySearch_ki.jsp?energyterm=kJ/mole&tag=r21&monomerid=50115620&enzyme=Beta-lactamase&column=ki&startPg=0&Increment=50&submit=Search

> <Ligand HET ID in PDB>
105

> <PDB ID(s) for Ligand-Target Complex>
1JWZ,1NYY,1FSY

> <PubChem CID of Ligand>
2815

> <PubChem SID of Ligand>
104009509

> <ChEBI ID of Ligand>


> <ChEMBL ID of Ligand>
CHEMBL324688

> <DrugBank ID of Ligand>


> <IUPHAR_GRAC ID of Ligand>


> <KEGG ID of Ligand>


> <ZINC ID of Ligand>


> <Number of Protein Chains in Target (bigger than 1 implies a multichain complex)>
1

> <BindingDB Target Chain Sequence>
MFKTTLCALLITASCSTFAAPQQINDIVHRTITPLIEQQKIPGMAVAVIYQGKPYYFTWGYADIAKKQPVTQQTLFELGSVSKTFTGVLGGDAIARGEIKLSDPTTKYWPELTAKQWNGITLLHLATYTAGGLPLQVPDEVKSSSDLLRFYQNWQPAWAPGTQRLYANSSIGLFGALAVKPSGLSFEQAMQTRVFQPLKLNHTWINVPPAEEKNYAWGYREGKAVHVSPGALDAEAYGVKSTIEDMARWVQSNLKPLDINEKTLQQGIQLAQSRYWQTGDMYQGLGWEMLDWPVNPDSIINGSDNKIALAARPVKAITPPTPAVRASWVHKTGATGGFGSYVAFIPEKELGIVMLANKNYPNPARVDAAWQILNALQ

> <PDB ID(s) of Target Chain>
1C3B,1FCO,1FSW,1FSY,1GA9,1IEL,1IEM,1KDS,1KDW,1KE0,1KE3,1KE4,1KVM,1L2S,1LL5,1LL9,1LLB,1MXO,1MY8,1XGI,1XGJ,2BLS,2HDQ,2HDR,2HDS,2HDU,2I72,2P9V,2PU2,2PU4,2R9W,2R9X,2RCX,3BLS,3BM6,3GQZ,3GR2,3GRJ,3GSG,3GTC,3GV9,3GVB,3O86,3O87,3O88,4E3I,4E3J,4E3K,4E3L,4E3M,4E3N,4E3O,4JXG,4JXS,4JXV,4JXW,4KG2,4KZ3,4KZ4,4KZ5,4KZ6,4KZ7,4KZ8,4KZ9,4KZA,4KZB,4LV0,4LV1,4LV2,4LV3,4OKP,4OLD,4OLG,6DPT,6DPX,6DPY,6DPZ,6T35,6T3D,6T5Y,6T7L,6TBW,6TPM,6WGQ,6YEN,6YEO,6YPD

> <UniProt (SwissProt) Recommended Name of Target Chain>
Beta-lactamase

> <UniProt (SwissProt) Entry Name of Target Chain>
AMPC_ECOLI

> <UniProt (SwissProt) Primary ID of Target Chain>
P00811

> <UniProt (SwissProt) Secondary ID(s) of Target Chain>
Q2M6F2

> <UniProt (SwissProt) Alternative ID(s) of Target Chain>


> <UniProt (TrEMBL) Submitted Name of Target Chain>


> <UniProt (TrEMBL) Entry Name of Target Chain>


> <UniProt (TrEMBL) Primary ID of Target Chain>


> <UniProt (TrEMBL) Secondary ID(s) of Target Chain>


> <UniProt (TrEMBL) Alternative ID(s) of Target Chain>


$$$$

  Mrv0541 11211411482D          

 20 21  0  0  0  0            999 V2000
    0.7057   -0.6305    0.0000 C   0  0  0  0  0  0  0  0  0  0  0  0
    1.3821   -1.1190    0.0000 C   0  0  0  0  0  0  0  0  0  0  0  0
    0.0418   -1.1190    0.0000 N   0  0  0  0  0  0  0  0  0  0  0  0
    0.7057    0.1962    0.0000 C   0  0  0  0  0  0  0  0  0  0  0  0
    2.1837   -0.9437    0.0000 C   0  0  0  0  0  0  0  0  0  0  0  0
    0.3006   -1.9081    0.0000 O   0  0  0  0  0  0  0  0  0  0  0  0
    1.1273   -1.9039    0.0000 C   0  0  0  0  0  0  0  0  0  0  0  0
    2.7349   -1.5574    0.0000 N   0  0  0  0  0  0  0  0  0  0  0  0
    4.0877   -2.0084    0.0000 B   0  0  0  0  0  0  0  0  0  0  0  0
    3.5365   -1.3904    0.0000 C   0  0  0  0  0  0  0  0  0  0  0  0
   -0.0083    0.6096    0.0000 C   0  0  0  0  0  0  0  0  0  0  0  0
    2.4342   -0.1545    0.0000 O   0  0  0  0  0  0  0  0  0  0  0  0
    4.8851   -1.7912    0.0000 O   0  0  0  0  0  0  0  0  0  0  0  0
    3.8246   -2.7850    0.0000 O   0  0  0  0  0  0  0  0  0  0  0  0
   -0.7265    0.1962    0.0000 Cl  0  0  0  0  0  0  0  0  0  0  0  0
    1.4196    0.6096    0.0000 C   0  0  0  0  0  0  0  0  0  0  0  0
    1.6702   -2.5177    0.0000 C   0  0  0  0  0  0  0  0  0  0  0  0
   -0.0083    1.4363    0.0000 C   0  0  0  0  0  0  0  0  0  0  0  0
    1.4196    1.4363    0.0000 C   0  0  0  0  0  0  0  0  0  0  0  0
    0.7057    1.8496    0.0000 C   0  0  0  0  0  0  0  0  0  0  0  0
  2  1  1  0  0  0  0
  3  1  2  0  0  0  0
  4  1  1  0  0  0  0
  5  2  1  0  0  0  0
  6  3  1  0  0  0  0
  7  2  2  0  0  0  0
  8  5  1  0  0  0  0
  9 10  1  0  0  0  0
 10  8  1  0  0  0  0
 11  4  2  0  0  0  0
 12  5  2  0  0  0  0
 13  9  1  0  0  0  0
 14  9  1  0  0  0  0
 15 11  1  0  0  0  0
 16  4  1  0  0  0  0
 17  7  1  0  0  0  0
 18 11  1  0  0  0  0
 19 16  2  0  0  0  0
 20 19  1  0  0  0  0
  7  6  1  0  0  0  0
 18 20  2  0  0  0  0
M  END
> <From>
www.bindingDB.org

> <BindingDB Reactant_set_id>
50209037

> <Ligand InChI>
InChI=1S/C12H12BClN2O4/c1-7-10(12(17)15-6-13(18)19)11(16-20-7)8-4-2-3-5-9(8)14/h2-5,18-19H,6H2,1H3,(H,15,17)

> <Ligand InChI Key>
LSXNXXCBOPILJR-UHFFFAOYSA-N

> <BindingDB MonomerID>
50115620

> <BindingDB Ligand Name>
3-(2-Chloro-phenyl)-5-methyl-2,3-dihydro-isoxazole-4-carboxylic acid dihydroxyboranylmethyl-amide::Acylglycineboronic acid, 9::CHEMBL324688::N-[5-METHYL-3-O-TOLYL-ISOXAZOLE-4-CARBOXYLIC ACID AMIDE] BORONIC ACID

> <Target Name>
Beta-lactamase

> <Target Source Organism According to Curator or DataSource>
Escherichia coli

> <Ki (nM)>
 150

> <IC50 (nM)>


> <Kd (nM)>


> <EC50 (nM)>


> <kon (M-1-s-1)>


> <koff (s-1)>


> <pH>


> <Temp C>


> <Curation/DataSource>
ChEMBL

> <Article DOI>
10.1021/jm020002p

> <BindingDB Entry DOI>
10.7270/Q2CN737M

> <PMID>
12109906

> <PubChem AID>


> <Patent Number>


> <Authors>
Powers, RA; Shoichet, BK

> <Institution>
Northwestern University

> <Link to Ligand in BindingDB>
http://www.bindingdb.org/bind/chemsearch/marvin/MolStructure.jsp?monomerid=50115620

> <Link to Ligand-Target Pair in BindingDB>
http://www.bindingdb.org/jsp/dbsearch/PrimarySearch_ki.jsp?energyterm=kJ/mole&tag=pol&polymerid=4401&target=Beta-lactamase&column=ki&startPg=0&Increment=50&submit=Search

> <Link to Ligand-Target Pair in BindingDB>
http://www.bindingdb.org/jsp/dbsearch/PrimarySearch_ki.jsp?energyterm=kJ/mole&tag=r21&monomerid=50115620&enzyme=Beta-lactamase&column=ki&startPg=0&Increment=50&submit=Search

> <Ligand HET ID in PDB>
105

> <PDB ID(s) for Ligand-Target Complex>
1JWZ,1NYY,1FSY

> <PubChem CID of Ligand>
2815

> <PubChem SID of Ligand>
104009509

> <ChEBI ID of Ligand>


> <ChEMBL ID of Ligand>
CHEMBL324688

> <DrugBank ID of Ligand>


> <IUPHAR_GRAC ID of Ligand>


> <KEGG ID of Ligand>


> <ZINC ID of Ligand>


> <Number of Protein Chains in Target (bigger than 1 implies a multichain complex)>
1

> <BindingDB Target Chain Sequence>
MFKTTLCALLITASCSTFAAPQQINDIVHRTITPLIEQQKIPGMAVAVIYQGKPYYFTWGYADIAKKQPVTQQTLFELGSVSKTFTGVLGGDAIARGEIKLSDPTTKYWPELTAKQWNGITLLHLATYTAGGLPLQVPDEVKSSSDLLRFYQNWQPAWAPGTQRLYANSSIGLFGALAVKPSGLSFEQAMQTRVFQPLKLNHTWINVPPAEEKNYAWGYREGKAVHVSPGALDAEAYGVKSTIEDMARWVQSNLKPLDINEKTLQQGIQLAQSRYWQTGDMYQGLGWEMLDWPVNPDSIINGSDNKIALAARPVKAITPPTPAVRASWVHKTGATGGFGSYVAFIPEKELGIVMLANKNYPNPARVDAAWQILNALQ

> <PDB ID(s) of Target Chain>
1C3B,1FCO,1FSW,1FSY,1GA9,1IEL,1IEM,1KDS,1KDW,1KE0,1KE3,1KE4,1KVM,1L2S,1LL5,1LL9,1LLB,1MXO,1MY8,1XGI,1XGJ,2BLS,2HDQ,2HDR,2HDS,2HDU,2I72,2P9V,2PU2,2PU4,2R9W,2R9X,2RCX,3BLS,3BM6,3GQZ,3GR2,3GRJ,3GSG,3GTC,3GV9,3GVB,3O86,3O87,3O88,4E3I,4E3J,4E3K,4E3L,4E3M,4E3N,4E3O,4JXG,4JXS,4JXV,4JXW,4KG2,4KZ3,4KZ4,4KZ5,4KZ6,4KZ7,4KZ8,4KZ9,4KZA,4KZB,4LV0,4LV1,4LV2,4LV3,4OKP,4OLD,4OLG,6DPT,6DPX,6DPY,6DPZ,6T35,6T3D,6T5Y,6T7L,6TBW,6TPM,6WGQ,6YEN,6YEO,6YPD

> <UniProt (SwissProt) Recommended Name of Target Chain>
Beta-lactamase

> <UniProt (SwissProt) Entry Name of Target Chain>
AMPC_ECOLI

> <UniProt (SwissProt) Primary ID of Target Chain>
P00811

> <UniProt (SwissProt) Secondary ID(s) of Target Chain>
Q2M6F2

> <UniProt (SwissProt) Alternative ID(s) of Target Chain>


> <UniProt (TrEMBL) Submitted Name of Target Chain>


> <UniProt (TrEMBL) Entry Name of Target Chain>


> <UniProt (TrEMBL) Primary ID of Target Chain>


> <UniProt (TrEMBL) Secondary ID(s) of Target Chain>


> <UniProt (TrEMBL) Alternative ID(s) of Target Chain>


$$$$

  Mrv0541 11191401012D          

 32 34  0  0  0  0            999 V2000
   -0.7396    1.4778    0.0000 C   0  0  0  0  0  0  0  0  0  0  0  0
   -1.5646    1.4778    0.0000 C   0  0  0  0  0  0  0  0  0  0  0  0
   -1.9771    2.1922    0.0000 C   0  0  0  0  0  0  0  0  0  0  0  0
   -1.5646    2.9067    0.0000 C   0  0  0  0  0  0  0  0  0  0  0  0
   -0.7396    2.9067    0.0000 C   0  0  0  0  0  0  0  0  0  0  0  0
   -0.3271    2.1922    0.0000 C   0  0  0  0  0  0  0  0  0  0  0  0
   -1.9771    3.6212    0.0000 B   0  0  0  0  0  0  0  0  0  0  0  0
   -2.8021    3.6212    0.0000 O   0  0  0  0  0  0  0  0  0  0  0  0
   -1.5646    4.3356    0.0000 O   0  0  0  0  0  0  0  0  0  0  0  0
    0.4979    2.1922    0.0000 N   0  0  0  0  0  0  0  0  0  0  0  0
    0.9104    1.4778    0.0000 S   0  0  0  0  0  0  0  0  0  0  0  0
    0.4979    0.7633    0.0000 O   0  0  0  0  0  0  0  0  0  0  0  0
    1.7354    1.4778    0.0000 C   0  0  0  0  0  0  0  0  0  0  0  0
    1.3229    2.1923    0.0000 O   0  0  0  0  0  0  0  0  0  0  0  0
    2.9729    2.1923    0.0000 C   0  0  0  0  0  0  0  0  0  0  0  0
    2.1479    2.1923    0.0000 C   0  0  0  0  0  0  0  0  0  0  0  0
    2.1479    0.7633    0.0000 C   0  0  0  0  0  0  0  0  0  0  0  0
    2.9729    0.7634    0.0000 C   0  0  0  0  0  0  0  0  0  0  0  0
    3.3854    1.4778    0.0000 C   0  0  0  0  0  0  0  0  0  0  0  0
    3.3854    0.0489    0.0000 N   0  0  0  0  0  0  0  0  0  0  0  0
    4.2104    0.0489    0.0000 S   0  0  0  0  0  0  0  0  0  0  0  0
    4.7938   -0.5345    0.0000 C   0  0  0  0  0  0  0  0  0  0  0  0
    3.7979    0.7634    0.0000 O   0  0  0  0  0  0  0  0  0  0  0  0
    4.9249    0.4614    0.0000 O   0  0  0  0  0  0  0  0  0  0  0  0
    5.5906   -0.3209    0.0000 C   0  0  0  0  0  0  0  0  0  0  0  0
    4.5802   -1.3314    0.0000 C   0  0  0  0  0  0  0  0  0  0  0  0
    5.1636   -1.9147    0.0000 C   0  0  0  0  0  0  0  0  0  0  0  0
    5.9605   -1.7012    0.0000 C   0  0  0  0  0  0  0  0  0  0  0  0
    6.1740   -0.9043    0.0000 C   0  0  0  0  0  0  0  0  0  0  0  0
    6.5438   -2.2846    0.0000 C   0  0  0  0  0  0  0  0  0  0  0  0
    7.3407   -2.0710    0.0000 O   0  0  0  0  0  0  0  0  0  0  0  0
    6.3303   -3.0815    0.0000 O   0  0  0  0  0  0  0  0  0  0  0  0
  1  2  2  0  0  0  0
  2  3  1  0  0  0  0
  3  4  2  0  0  0  0
  4  5  1  0  0  0  0
  5  6  2  0  0  0  0
  1  6  1  0  0  0  0
  4  7  1  0  0  0  0
  7  8  1  0  0  0  0
  7  9  1  0  0  0  0
  6 10  1  0  0  0  0
 10 11  1  0  0  0  0
 11 12  2  0  0  0  0
 11 13  1  0  0  0  0
 11 14  2  0  0  0  0
 16 13  2  0  0  0  0
 13 17  1  0  0  0  0
 15 16  1  0  0  0  0
 17 18  2  0  0  0  0
 18 19  1  0  0  0  0
 15 19  2  0  0  0  0
 18 20  1  0  0  0  0
 20 21  1  0  0  0  0
 21 22  1  0  0  0  0
 21 23  2  0  0  0  0
 21 24  2  0  0  0  0
 25 22  2  0  0  0  0
 22 26  1  0  0  0  0
 26 27  2  0  0  0  0
 27 28  1  0  0  0  0
 28 29  2  0  0  0  0
 25 29  1  0  0  0  0
 28 30  1  0  0  0  0
 30 31  2  0  0  0  0
 30 32  1  0  0  0  0
M  END
> <From>
www.bindingDB.org

> <BindingDB Reactant_set_id>
74852

> <Ligand InChI>
InChI=1S/C19H17BN2O8S2/c23-19(24)13-7-9-17(10-8-13)31(27,28)22-16-5-2-6-18(12-16)32(29,30)21-15-4-1-3-14(11-15)20(25)26/h1-12,21-22,25-26H,(H,23,24)

> <Ligand InChI Key>
SXBYWLSPXCJQIF-UHFFFAOYSA-N

> <BindingDB MonomerID>
39856

> <BindingDB Ligand Name>
Amide and sulfonamide derivatives, 41

> <Target Name>
Beta-lactamase

> <Target Source Organism According to Curator or DataSource>
Enterobacter cloacae

> <Ki (nM)>
 1.7e+2

> <IC50 (nM)>


> <Kd (nM)>


> <EC50 (nM)>


> <kon (M-1-s-1)>


> <koff (s-1)>


> <pH>
7

> <Temp C>


> <Curation/DataSource>
Curated from the literature by BindingDB

> <Article DOI>
10.1016/S1074-5521(01)00034-5

> <BindingDB Entry DOI>
10.7270/Q27M06BZ

> <PMID>
11410378

> <PubChem AID>
aid1799472

> <Patent Number>


> <Authors>
Tondi, D; Powers, RA; Caselli, E; Negri, MC; Bl&aacute;zquez, J; Costi, MP; Shoichet, BK

> <Institution>
Northwestern University

> <Link to Ligand in BindingDB>
http://www.bindingdb.org/bind/chemsearch/marvin/MolStructure.jsp?monomerid=39856

> <Link to Ligand-Target Pair in BindingDB>
http://www.bindingdb.org/jsp/dbsearch/PrimarySearch_ki.jsp?energyterm=kJ/mole&tag=pol&polymerid=50002394&target=Beta-lactamase&column=ki&startPg=0&Increment=50&submit=Search

> <Link to Ligand-Target Pair in BindingDB>
http://www.bindingdb.org/jsp/dbsearch/PrimarySearch_ki.jsp?energyterm=kJ/mole&tag=r21&monomerid=39856&enzyme=Beta-lactamase&column=ki&startPg=0&Increment=50&submit=Search

> <Ligand HET ID in PDB>


> <PDB ID(s) for Ligand-Target Complex>


> <PubChem CID of Ligand>
9869567

> <PubChem SID of Ligand>
123080164

> <ChEBI ID of Ligand>


> <ChEMBL ID of Ligand>


> <DrugBank ID of Ligand>


> <IUPHAR_GRAC ID of Ligand>


> <KEGG ID of Ligand>


> <ZINC ID of Ligand>


> <Number of Protein Chains in Target (bigger than 1 implies a multichain complex)>
1

> <BindingDB Target Chain Sequence>
MMRKSLCCALLLGISCSALATPVSEKQLAEVVANTITPLMKAQSVPGMAVAVIYQGKPHYYTFGKADIAANKPVTPQTLFELGSISKTFTGVLGGDAIARGEISLDDAVTRYWPQLTGKQWQGIRMLDLATYTAGGLPLQVPDEVTDNASLLRFYQNWQPQWKPGTTRLYANASIGLFGALAVKPSGMPYEQAMTTRVLKPLKLDHTWINVPKAEEAHYAWGYRDGKAVRVSPGMLDAQAYGVKTNVQDMANWVMANMAPENVADASLKQGIALAQSRYWRIGSMYQGLGWEMLNWPVEANTVVEGSDSKVALAPLPVAEVNPPAPPVKASWVHKTGSTGGFGSYVAFIPEKQIGIVMLANTSYPNPARVEAAYHILEALQ

> <PDB ID(s) of Target Chain>
1XX2,2Q9M,2Q9N,7TI1

> <UniProt (SwissProt) Recommended Name of Target Chain>
Beta-lactamase

> <UniProt (SwissProt) Entry Name of Target Chain>
AMPC_ENTCL

> <UniProt (SwissProt) Primary ID of Target Chain>
P05364

> <UniProt (SwissProt) Secondary ID(s) of Target Chain>


> <UniProt (SwissProt) Alternative ID(s) of Target Chain>


> <UniProt (TrEMBL) Submitted Name of Target Chain>


> <UniProt (TrEMBL) Entry Name of Target Chain>


> <UniProt (TrEMBL) Primary ID of Target Chain>


> <UniProt (TrEMBL) Secondary ID(s) of Target Chain>


> <UniProt (TrEMBL) Alternative ID(s) of Target Chain>


$$$$

  Mrv0541 11221409162D          

 19 21  0  0  0  0            999 V2000
   -1.7706   -8.8166    0.0000 C   0  0  0  0  0  0  0  0  0  0  0  0
   -1.7717   -9.6391    0.0000 C   0  0  0  0  0  0  0  0  0  0  0  0
   -1.0534  -10.0515    0.0000 C   0  0  0  0  0  0  0  0  0  0  0  0
   -1.0552   -8.4042    0.0000 C   0  0  0  0  0  0  0  0  0  0  0  0
   -0.3447   -8.8129    0.0000 C   0  0  0  0  0  0  0  0  0  0  0  0
   -0.3445   -9.6391    0.0000 C   0  0  0  0  0  0  0  0  0  0  0  0
    0.4411   -9.8912    0.0000 S   0  0  0  0  0  0  0  0  0  0  0  0
    0.9206   -9.2318    0.0000 C   0  0  0  0  0  0  0  0  0  0  0  0
    0.4407   -8.5604    0.0000 C   0  0  0  0  0  0  0  0  0  0  0  0
    1.7448   -9.2357    0.0000 B   0  0  0  0  0  0  0  0  0  0  0  0
    2.1573   -9.9453    0.0000 O   0  0  0  0  0  0  0  0  0  0  0  0
    2.1568   -8.5176    0.0000 O   0  0  0  0  0  0  0  0  0  0  0  0
   -2.4928   -8.4005    0.0000 C   0  0  0  0  0  0  0  0  0  0  0  0
   -3.2049   -8.8167    0.0000 N   0  3  0  0  0  0  0  0  0  0  0  0
   -3.9873   -8.5655    0.0000 C   0  0  0  0  0  0  0  0  0  0  0  0
   -4.4670   -9.2344    0.0000 N   0  0  0  0  0  0  0  0  0  0  0  0
   -3.9800   -9.8965    0.0000 C   0  0  0  0  0  0  0  0  0  0  0  0
   -3.1979   -9.6439    0.0000 N   0  0  0  0  0  0  0  0  0  0  0  0
   -5.2939   -9.2377    0.0000 N   0  0  0  0  0  0  0  0  0  0  0  0
  9  5  1  0  0  0  0
  4  1  1  0  0  0  0
  8 10  1  0  0  0  0
  5  6  1  0  0  0  0
 10 11  1  0  0  0  0
 10 12  1  0  0  0  0
  2  3  1  0  0  0  0
  1 13  1  0  0  0  0
  3  6  2  0  0  0  0
 13 14  1  0  0  0  0
 14 15  2  0  0  0  0
  1  2  2  0  0  0  0
  5  4  2  0  0  0  0
  6  7  1  0  0  0  0
  7  8  1  0  0  0  0
 15 16  1  0  0  0  0
 16 17  1  0  0  0  0
 17 18  2  0  0  0  0
 18 14  1  0  0  0  0
  8  9  2  0  0  0  0
 16 19  1  0  0  0  0
M  CHG  1  14   1
M  END
> <From>
www.bindingDB.org

> <BindingDB Reactant_set_id>
50404424

> <Ligand InChI>
InChI=1S/C11H12BN4O2S/c13-15-6-14-16(7-15)5-8-1-2-10-9(3-8)4-11(19-10)12(17)18/h1-4,6-7,17-18H,5,13H2/q+1

> <Ligand InChI Key>
OIJFJYAPZDYGLS-UHFFFAOYSA-N

> <BindingDB MonomerID>
50225374

> <BindingDB Ligand Name>
5 [(1,2,4-triazol-1-ylmethyl]benzo[b]thiophen-2-ylboronic acid::CHEMBL235951

> <Target Name>
Beta-lactamase TEM

> <Target Source Organism According to Curator or DataSource>


> <Ki (nM)>
 170

> <IC50 (nM)>


> <Kd (nM)>


> <EC50 (nM)>


> <kon (M-1-s-1)>


> <koff (s-1)>


> <pH>


> <Temp C>


> <Curation/DataSource>
ChEMBL

> <Article DOI>
10.1021/jm070643q

> <BindingDB Entry DOI>
10.7270/Q21N80W5

> <PMID>
17956081

> <PubChem AID>


> <Patent Number>


> <Authors>
Venturelli, A; Tondi, D; Cancian, L; Morandi, F; Cannazza, G; Segatore, B; Prati, F; Amicosante, G; Shoichet, BK; Costi, MP

> <Institution>
Universit&#224; degli Studi di Modena e Reggio Emilia

> <Link to Ligand in BindingDB>
http://www.bindingdb.org/bind/chemsearch/marvin/MolStructure.jsp?monomerid=50225374

> <Link to Ligand-Target Pair in BindingDB>
http://www.bindingdb.org/jsp/dbsearch/PrimarySearch_ki.jsp?energyterm=kJ/mole&tag=pol&polymerid=7704&target=Beta-lactamase+TEM&column=ki&startPg=0&Increment=50&submit=Search

> <Link to Ligand-Target Pair in BindingDB>
http://www.bindingdb.org/jsp/dbsearch/PrimarySearch_ki.jsp?energyterm=kJ/mole&tag=r21&monomerid=50225374&enzyme=Beta-lactamase+TEM&column=ki&startPg=0&Increment=50&submit=Search

> <Ligand HET ID in PDB>


> <PDB ID(s) for Ligand-Target Complex>


> <PubChem CID of Ligand>
23655692

> <PubChem SID of Ligand>
104096680

> <ChEBI ID of Ligand>


> <ChEMBL ID of Ligand>
CHEMBL235951

> <DrugBank ID of Ligand>


> <IUPHAR_GRAC ID of Ligand>


> <KEGG ID of Ligand>


> <ZINC ID of Ligand>


> <Number of Protein Chains in Target (bigger than 1 implies a multichain complex)>
1

> <BindingDB Target Chain Sequence>
MSIQHFRVALIPFFAAFCLPVFAHPETLVKVKDAEDQLGARVGYIELDLNSGKILESFRPEERFPMMSTFKVLLCGAVLSRVDAGQEQLGRRIHYSQNDLVEYSPVTEKHLTDGMTVRELCSAAITMSDNTAANLLLTTIGGPKELTAFLHNMGDHVTRLDRWEPELNEAIPNDERDTTMPAAMATTLRKLLTGELLTLASRQQLIDWMEADKVAGPLLRSALPAGWFIADKSGAGERGSRGIIAALGPDGKPSRIVVIYTTGSQATMDERNRQIAEIGASLIKHW

> <PDB ID(s) of Target Chain>
1ERM,1ERO,1ERQ,1ESU,1FQG,1JTD,1JVJ,1JWP,1JWV,1LHY,1LI9,1M40,1NXY,1NY0,1NYM,1NYY,1PZO,1PZP,1S0W,1XPB,1YT4,2V1Z,2V20,3CMZ,3DTM,3JYI,3P98,4DXB,4DXC,4GKU,4ZJ2,5AQ8,5HVI,5HW1,5HW5,5NPO,6B2N,7QLP,7QNK,7U6Q,8DE0

> <UniProt (SwissProt) Recommended Name of Target Chain>
Beta-lactamase TEM

> <UniProt (SwissProt) Entry Name of Target Chain>
BLAT_ECOLX

> <UniProt (SwissProt) Primary ID of Target Chain>
P62593

> <UniProt (SwissProt) Secondary ID(s) of Target Chain>
P00810 Q47313

> <UniProt (SwissProt) Alternative ID(s) of Target Chain>


> <UniProt (TrEMBL) Submitted Name of Target Chain>


> <UniProt (TrEMBL) Entry Name of Target Chain>


> <UniProt (TrEMBL) Primary ID of Target Chain>


> <UniProt (TrEMBL) Secondary ID(s) of Target Chain>


> <UniProt (TrEMBL) Alternative ID(s) of Target Chain>


$$$$

  Mrv0541 11191401012D          

 15 15  0  0  0  0            999 V2000
   -2.0920    2.6813    0.0000 C   0  0  0  0  0  0  0  0  0  0  0  0
   -1.3775    3.0938    0.0000 C   0  0  0  0  0  0  0  0  0  0  0  0
   -0.6630    2.6813    0.0000 N   0  0  0  0  0  0  0  0  0  0  0  0
   -1.3775    3.9188    0.0000 O   0  0  0  0  0  0  0  0  0  0  0  0
    0.0514    3.0938    0.0000 C   0  0  0  0  0  0  0  0  0  0  0  0
    0.7659    2.6813    0.0000 B   0  0  0  0  0  0  0  0  0  0  0  0
    1.4804    3.0938    0.0000 O   0  0  0  0  0  0  0  0  0  0  0  0
    0.7659    1.8563    0.0000 O   0  0  0  0  0  0  0  0  0  0  0  0
   -2.8064    3.0938    0.0000 S   0  0  0  0  0  0  0  0  0  0  0  0
   -3.5209    2.6813    0.0000 C   0  0  0  0  0  0  0  0  0  0  0  0
   -4.2354    3.0938    0.0000 C   0  0  0  0  0  0  0  0  0  0  0  0
   -4.9498    2.6813    0.0000 C   0  0  0  0  0  0  0  0  0  0  0  0
   -4.9498    1.8562    0.0000 N   0  0  0  0  0  0  0  0  0  0  0  0
   -4.2354    1.4437    0.0000 C   0  0  0  0  0  0  0  0  0  0  0  0
   -3.5209    1.8562    0.0000 C   0  0  0  0  0  0  0  0  0  0  0  0
  1  2  1  0  0  0  0
  2  3  1  0  0  0  0
  2  4  2  0  0  0  0
  3  5  1  0  0  0  0
  5  6  1  0  0  0  0
  6  7  1  0  0  0  0
  6  8  1  0  0  0  0
  1  9  1  0  0  0  0
  9 10  1  0  0  0  0
 15 10  2  0  0  0  0
 11 10  1  0  0  0  0
 11 12  2  0  0  0  0
 12 13  1  0  0  0  0
 13 14  2  0  0  0  0
 14 15  1  0  0  0  0
M  END
> <From>
www.bindingDB.org

> <BindingDB Reactant_set_id>
74790

> <Ligand InChI>
InChI=1S/C8H11BN2O3S/c12-8(11-6-9(13)14)5-15-7-1-3-10-4-2-7/h1-4,13-14H,5-6H2,(H,11,12)

> <Ligand InChI Key>
OFFGBNBXADEGEB-UHFFFAOYSA-N

> <BindingDB MonomerID>
39814

> <BindingDB Ligand Name>
Acylglycineboronic acid, 13

> <Target Name>
Beta-lactamase

> <Target Source Organism According to Curator or DataSource>
Escherichia coli

> <Ki (nM)>
 175

> <IC50 (nM)>


> <Kd (nM)>


> <EC50 (nM)>


> <kon (M-1-s-1)>


> <koff (s-1)>


> <pH>
7

> <Temp C>


> <Curation/DataSource>
Curated from the literature by BindingDB

> <Article DOI>
10.1016/S1074-5521(00)00052-1

> <BindingDB Entry DOI>
10.7270/Q2CC0Z3R

> <PMID>
11182316

> <PubChem AID>
aid1799471

> <Patent Number>


> <Authors>
Caselli, E; Powers, RA; Blasczcak, LC; Wu, CY; Prati, F; Shoichet, BK

> <Institution>
Northwestern University

> <Link to Ligand in BindingDB>
http://www.bindingdb.org/bind/chemsearch/marvin/MolStructure.jsp?monomerid=39814

> <Link to Ligand-Target Pair in BindingDB>
http://www.bindingdb.org/jsp/dbsearch/PrimarySearch_ki.jsp?energyterm=kJ/mole&tag=pol&polymerid=4401&target=Beta-lactamase&column=ki&startPg=0&Increment=50&submit=Search

> <Link to Ligand-Target Pair in BindingDB>
http://www.bindingdb.org/jsp/dbsearch/PrimarySearch_ki.jsp?energyterm=kJ/mole&tag=r21&monomerid=39814&enzyme=Beta-lactamase&column=ki&startPg=0&Increment=50&submit=Search

> <Ligand HET ID in PDB>


> <PDB ID(s) for Ligand-Target Complex>


> <PubChem CID of Ligand>
9834477

> <PubChem SID of Ligand>
123080122

> <ChEBI ID of Ligand>


> <ChEMBL ID of Ligand>


> <DrugBank ID of Ligand>


> <IUPHAR_GRAC ID of Ligand>


> <KEGG ID of Ligand>


> <ZINC ID of Ligand>


> <Number of Protein Chains in Target (bigger than 1 implies a multichain complex)>
1

> <BindingDB Target Chain Sequence>
MFKTTLCALLITASCSTFAAPQQINDIVHRTITPLIEQQKIPGMAVAVIYQGKPYYFTWGYADIAKKQPVTQQTLFELGSVSKTFTGVLGGDAIARGEIKLSDPTTKYWPELTAKQWNGITLLHLATYTAGGLPLQVPDEVKSSSDLLRFYQNWQPAWAPGTQRLYANSSIGLFGALAVKPSGLSFEQAMQTRVFQPLKLNHTWINVPPAEEKNYAWGYREGKAVHVSPGALDAEAYGVKSTIEDMARWVQSNLKPLDINEKTLQQGIQLAQSRYWQTGDMYQGLGWEMLDWPVNPDSIINGSDNKIALAARPVKAITPPTPAVRASWVHKTGATGGFGSYVAFIPEKELGIVMLANKNYPNPARVDAAWQILNALQ

> <PDB ID(s) of Target Chain>
1C3B,1FCO,1FSW,1FSY,1GA9,1IEL,1IEM,1KDS,1KDW,1KE0,1KE3,1KE4,1KVM,1L2S,1LL5,1LL9,1LLB,1MXO,1MY8,1XGI,1XGJ,2BLS,2HDQ,2HDR,2HDS,2HDU,2I72,2P9V,2PU2,2PU4,2R9W,2R9X,2RCX,3BLS,3BM6,3GQZ,3GR2,3GRJ,3GSG,3GTC,3GV9,3GVB,3O86,3O87,3O88,4E3I,4E3J,4E3K,4E3L,4E3M,4E3N,4E3O,4JXG,4JXS,4JXV,4JXW,4KG2,4KZ3,4KZ4,4KZ5,4KZ6,4KZ7,4KZ8,4KZ9,4KZA,4KZB,4LV0,4LV1,4LV2,4LV3,4OKP,4OLD,4OLG,6DPT,6DPX,6DPY,6DPZ,6T35,6T3D,6T5Y,6T7L,6TBW,6TPM,6WGQ,6YEN,6YEO,6YPD

> <UniProt (SwissProt) Recommended Name of Target Chain>
Beta-lactamase

> <UniProt (SwissProt) Entry Name of Target Chain>
AMPC_ECOLI

> <UniProt (SwissProt) Primary ID of Target Chain>
P00811

> <UniProt (SwissProt) Secondary ID(s) of Target Chain>
Q2M6F2

> <UniProt (SwissProt) Alternative ID(s) of Target Chain>


> <UniProt (TrEMBL) Submitted Name of Target Chain>


> <UniProt (TrEMBL) Entry Name of Target Chain>


> <UniProt (TrEMBL) Primary ID of Target Chain>


> <UniProt (TrEMBL) Secondary ID(s) of Target Chain>


> <UniProt (TrEMBL) Alternative ID(s) of Target Chain>


$$$$

  Mrv0541 11211413052D          

  6  5  0  0  0  0            999 V2000
    3.9292   -1.6500    0.0000 C   0  0  0  0  0  0  0  0  0  0  0  0
    3.1042   -1.6500    0.0000 C   0  0  0  0  0  0  0  0  0  0  0  0
    4.3417   -2.3625    0.0000 O   0  0  0  0  0  0  0  0  0  0  0  0
    4.3417   -0.9292    0.0000 O   0  0  0  0  0  0  0  0  0  0  0  0
    1.8750   -2.3667    0.0000 S   0  0  0  0  0  0  0  0  0  0  0  0
    2.7000   -2.3667    0.0000 C   0  0  0  0  0  0  0  0  0  0  0  0
  2  1  1  0  0  0  0
  3  1  2  0  0  0  0
  4  1  1  0  0  0  0
  5  6  1  0  0  0  0
  6  2  1  0  0  0  0
M  END
> <From>
www.bindingDB.org

> <BindingDB Reactant_set_id>
50622367

> <Ligand InChI>
InChI=1S/C3H6O2S/c4-3(5)1-2-6/h6H,1-2H2,(H,4,5)

> <Ligand InChI Key>
DKIDEFUBRARXTE-UHFFFAOYSA-N

> <BindingDB MonomerID>
50121953

> <BindingDB Ligand Name>
2-mercaptoethanecarboxylic acid::3-mercaptopropanoic acid::3-mercaptopropionic acid::3-sulfanylpropanoic acid::3-thiohydracrylic acid::3-thiolpropanoic acid::3-thiopropanoic acid::3-thiopropionic acid::3MPA::CHEMBL358697::beta-mercaptopropionic acid::beta-thiopropionic acid

> <Target Name>
Beta-lactamase

> <Target Source Organism According to Curator or DataSource>
Pseudomonas aeruginosa

> <Ki (nM)>
 180

> <IC50 (nM)>


> <Kd (nM)>


> <EC50 (nM)>


> <kon (M-1-s-1)>


> <koff (s-1)>


> <pH>


> <Temp C>


> <Curation/DataSource>
ChEMBL

> <Article DOI>
10.1128/AAC.01397-09

> <BindingDB Entry DOI>
10.7270/Q29C6XQ2

> <PMID>
20606062

> <PubChem AID>


> <Patent Number>


> <Authors>
Ishii, Y; Eto, M; Mano, Y; Tateda, K; Yamaguchi, K

> <Institution>
Toho University School of Medicine

> <Link to Ligand in BindingDB>
http://www.bindingdb.org/bind/chemsearch/marvin/MolStructure.jsp?monomerid=50121953

> <Link to Ligand-Target Pair in BindingDB>
http://www.bindingdb.org/jsp/dbsearch/PrimarySearch_ki.jsp?energyterm=kJ/mole&tag=pol&polymerid=4684&target=Beta-lactamase&column=ki&startPg=0&Increment=50&submit=Search

> <Link to Ligand-Target Pair in BindingDB>
http://www.bindingdb.org/jsp/dbsearch/PrimarySearch_ki.jsp?energyterm=kJ/mole&tag=r21&monomerid=50121953&enzyme=Beta-lactamase&column=ki&startPg=0&Increment=50&submit=Search

> <Ligand HET ID in PDB>
MPT

> <PDB ID(s) for Ligand-Target Complex>
1YYM,1YYL,2I5Y,5KJR,4LAJ,7LOK,7THO,7N8Q,5ID1,4K0A,6MFP,4R4N,4R4F,6W4M,2VDN,6MG7,1K09,7S5G,7S5H,5W4L,4JZZ,4JZW,2I60,4KTX,4KS6,1XY1,4RFN,4RFO,4KA2

> <PubChem CID of Ligand>
6514

> <PubChem SID of Ligand>
104014696

> <ChEBI ID of Ligand>
50329

> <ChEMBL ID of Ligand>
CHEMBL358697

> <DrugBank ID of Ligand>


> <IUPHAR_GRAC ID of Ligand>


> <KEGG ID of Ligand>


> <ZINC ID of Ligand>
ZINC03860582

> <Number of Protein Chains in Target (bigger than 1 implies a multichain complex)>
1

> <BindingDB Target Chain Sequence>
MSKLSVFFIFLFCSIATAAESLPDLKIEKLDEGVYVHTSFEEVNGWGVVPKHGLVVLVNAEAYLIDTPFTAKDTEKLVTWFVERGYKIKGSISSHFHSDSTGGIEWLNSRSIPTYASELTNELLKKDGKVQATNSFSGVNYWLVKNKIEVFYPGPGHTPDNVVVWLPERKILFGGCFIKPYGLGNLGDANIEAWPKSAKLLKSKYGKAKLVVPSHSEVGDASLLKLTLEQAVKGLNESKKPSKPSN

> <PDB ID(s) of Target Chain>
1DD6,1DDK,1JJE,1JJT,1VGN,2DOO,3WXC,4C1F,4C1G,4UAM,5EV6,5EV8,5EWA,5Y5B,6JED,6LBL,6ZYR,6ZYS,7DTM,7XHW,7YH9,7YHA

> <UniProt (SwissProt) Recommended Name of Target Chain>


> <UniProt (SwissProt) Entry Name of Target Chain>


> <UniProt (SwissProt) Primary ID of Target Chain>


> <UniProt (SwissProt) Secondary ID(s) of Target Chain>


> <UniProt (SwissProt) Alternative ID(s) of Target Chain>


> <UniProt (TrEMBL) Submitted Name of Target Chain>
Beta-lactamase

> <UniProt (TrEMBL) Entry Name of Target Chain>
Q79MP6_PSEAI

> <UniProt (TrEMBL) Primary ID of Target Chain>
Q79MP6

> <UniProt (TrEMBL) Secondary ID(s) of Target Chain>


> <UniProt (TrEMBL) Alternative ID(s) of Target Chain>


$$$$

  Mrv0541 11231414382D          

 25 28  0  0  0  0            999 V2000
    5.0465   -3.1564    0.0000 C   0  0  0  0  0  0  0  0  0  0  0  0
    4.8776   -2.5161    0.0000 C   0  0  1  0  0  0  0  0  0  0  0  0
    5.3479   -2.0498    0.0000 O   0  0  0  0  0  0  0  0  0  0  0  0
    4.0817   -2.2998    0.0000 C   0  0  2  0  0  0  0  0  0  0  0  0
    3.6618   -1.5644    0.0000 C   0  0  1  0  0  0  0  0  0  0  0  0
    3.4872   -0.7681    0.0000 C   0  0  1  0  0  0  0  0  0  0  0  0
    3.9249   -0.2711    0.0000 C   0  0  0  0  0  0  0  0  0  0  0  0
    2.6768   -0.6954    0.0000 C   0  0  0  0  0  0  0  0  0  0  0  0
    2.3458   -1.4409    0.0000 C   0  0  0  0  0  0  0  0  0  0  0  0
    2.9470   -1.9781    0.0000 N   0  0  0  0  0  0  0  0  0  0  0  0
    3.3599   -2.7201    0.0000 C   0  0  0  0  0  0  0  0  0  0  0  0
    3.1847   -3.3587    0.0000 O   0  0  0  0  0  0  0  0  0  0  0  0
    1.5374   -1.6149    0.0000 C   0  0  0  0  0  0  0  0  0  0  0  0
    1.0926   -1.1243    0.0000 O   0  0  0  0  0  0  0  0  0  0  0  0
    1.3346   -2.2453    0.0000 O   0  0  0  0  0  0  0  0  0  0  0  0
    2.2555    0.0177    0.0000 S   0  0  0  0  0  0  0  0  0  0  0  0
    1.4287    0.0100    0.0000 C   0  0  0  0  0  0  0  0  0  0  0  0
    0.9457    0.6640    0.0000 C   0  0  0  0  0  0  0  0  0  0  0  0
    0.1610    0.4125    0.0000 C   0  0  0  0  0  0  0  0  0  0  0  0
   -0.5534    0.8350    0.0000 C   0  0  0  0  0  0  0  0  0  0  0  0
   -1.2778    0.4125    0.0000 C   0  0  0  0  0  0  0  0  0  0  0  0
   -1.2778   -0.4125    0.0000 C   0  0  0  0  0  0  0  0  0  0  0  0
   -0.5534   -0.8350    0.0000 C   0  0  0  0  0  0  0  0  0  0  0  0
    0.1610   -0.4125    0.0000 C   0  0  0  0  0  0  0  0  0  0  0  0
    0.9457   -0.6640    0.0000 S   0  0  0  0  0  0  0  0  0  0  0  0
  2  1  1  0  0  0  0
  2  3  1  6  0  0  0
  4  2  1  1  0  0  0
  4  5  1  0  0  0  0
  5  6  1  0  0  0  0
  6  7  1  6  0  0  0
  6  8  1  0  0  0  0
  8  9  2  0  0  0  0
  9 10  1  0  0  0  0
  5 10  1  6  0  0  0
 10 11  1  0  0  0  0
  4 11  1  0  0  0  0
 11 12  2  0  0  0  0
  9 13  1  0  0  0  0
 13 14  2  0  0  0  0
 13 15  1  0  0  0  0
  8 16  1  0  0  0  0
 16 17  1  0  0  0  0
 17 18  2  0  0  0  0
 18 19  1  0  0  0  0
 19 20  2  0  0  0  0
 20 21  1  0  0  0  0
 21 22  2  0  0  0  0
 22 23  1  0  0  0  0
 23 24  2  0  0  0  0
 24 19  1  0  0  0  0
 24 25  1  0  0  0  0
 25 17  1  0  0  0  0
M  END
> <From>
www.bindingDB.org

> <BindingDB Reactant_set_id>
50622368

> <Ligand InChI>
InChI=1S/C18H17NO4S2/c1-8-14-13(9(2)20)17(21)19(14)15(18(22)23)16(8)25-12-7-10-5-3-4-6-11(10)24-12/h3-9,13-14,20H,1-2H3,(H,22,23)/t8-,9-,13-,14-/m1/s1

> <Ligand InChI Key>
MARAOMYICBQCLN-HFOBELJZSA-N

> <BindingDB MonomerID>
50336511

> <BindingDB Ligand Name>
(4R,5S,6S)-3-(benzo[b]thiophen-2-ylthio)-6-((R)-1-hydroxyethyl)-4-methyl-7-oxo-1-azabicyclo[3.2.0]hept-2-ene-2-carboxylic acid::CHEMBL1206553

> <Target Name>
Beta-lactamase

> <Target Source Organism According to Curator or DataSource>
Pseudomonas aeruginosa

> <Ki (nM)>
 180

> <IC50 (nM)>


> <Kd (nM)>


> <EC50 (nM)>


> <kon (M-1-s-1)>


> <koff (s-1)>


> <pH>


> <Temp C>


> <Curation/DataSource>
ChEMBL

> <Article DOI>
10.1128/AAC.01397-09

> <BindingDB Entry DOI>
10.7270/Q29C6XQ2

> <PMID>
20606062

> <PubChem AID>


> <Patent Number>


> <Authors>
Ishii, Y; Eto, M; Mano, Y; Tateda, K; Yamaguchi, K

> <Institution>
Toho University School of Medicine

> <Link to Ligand in BindingDB>
http://www.bindingdb.org/bind/chemsearch/marvin/MolStructure.jsp?monomerid=50336511

> <Link to Ligand-Target Pair in BindingDB>
http://www.bindingdb.org/jsp/dbsearch/PrimarySearch_ki.jsp?energyterm=kJ/mole&tag=pol&polymerid=4684&target=Beta-lactamase&column=ki&startPg=0&Increment=50&submit=Search

> <Link to Ligand-Target Pair in BindingDB>
http://www.bindingdb.org/jsp/dbsearch/PrimarySearch_ki.jsp?energyterm=kJ/mole&tag=r21&monomerid=50336511&enzyme=Beta-lactamase&column=ki&startPg=0&Increment=50&submit=Search

> <Ligand HET ID in PDB>


> <PDB ID(s) for Ligand-Target Complex>


> <PubChem CID of Ligand>
9822198

> <PubChem SID of Ligand>
125086613

> <ChEBI ID of Ligand>


> <ChEMBL ID of Ligand>
CHEMBL1206553

> <DrugBank ID of Ligand>


> <IUPHAR_GRAC ID of Ligand>


> <KEGG ID of Ligand>


> <ZINC ID of Ligand>
ZINC03981636

> <Number of Protein Chains in Target (bigger than 1 implies a multichain complex)>
1

> <BindingDB Target Chain Sequence>
MSKLSVFFIFLFCSIATAAESLPDLKIEKLDEGVYVHTSFEEVNGWGVVPKHGLVVLVNAEAYLIDTPFTAKDTEKLVTWFVERGYKIKGSISSHFHSDSTGGIEWLNSRSIPTYASELTNELLKKDGKVQATNSFSGVNYWLVKNKIEVFYPGPGHTPDNVVVWLPERKILFGGCFIKPYGLGNLGDANIEAWPKSAKLLKSKYGKAKLVVPSHSEVGDASLLKLTLEQAVKGLNESKKPSKPSN

> <PDB ID(s) of Target Chain>
1DD6,1DDK,1JJE,1JJT,1VGN,2DOO,3WXC,4C1F,4C1G,4UAM,5EV6,5EV8,5EWA,5Y5B,6JED,6LBL,6ZYR,6ZYS,7DTM,7XHW,7YH9,7YHA

> <UniProt (SwissProt) Recommended Name of Target Chain>


> <UniProt (SwissProt) Entry Name of Target Chain>


> <UniProt (SwissProt) Primary ID of Target Chain>


> <UniProt (SwissProt) Secondary ID(s) of Target Chain>


> <UniProt (SwissProt) Alternative ID(s) of Target Chain>


> <UniProt (TrEMBL) Submitted Name of Target Chain>
Beta-lactamase

> <UniProt (TrEMBL) Entry Name of Target Chain>
Q79MP6_PSEAI

> <UniProt (TrEMBL) Primary ID of Target Chain>
Q79MP6

> <UniProt (TrEMBL) Secondary ID(s) of Target Chain>


> <UniProt (TrEMBL) Alternative ID(s) of Target Chain>


$$$$

  Mrv0541 11231414382D          

  5  4  0  0  0  0            999 V2000
    1.0167    0.3104    0.0000 O   0  0  0  0  0  0  0  0  0  0  0  0
    0.1917    0.3104    0.0000 C   0  0  0  0  0  0  0  0  0  0  0  0
   -0.2208   -0.4040    0.0000 O   0  0  0  0  0  0  0  0  0  0  0  0
   -0.2208    1.0249    0.0000 C   0  0  0  0  0  0  0  0  0  0  0  0
   -1.0458    1.0249    0.0000 S   0  0  0  0  0  0  0  0  0  0  0  0
  2  1  1  0  0  0  0
  2  3  2  0  0  0  0
  2  4  1  0  0  0  0
  4  5  1  0  0  0  0
M  END
> <From>
www.bindingDB.org

> <BindingDB Reactant_set_id>
50622365

> <Ligand InChI>
InChI=1S/C2H4O2S/c3-2(4)1-5/h5H,1H2,(H,3,4)

> <Ligand InChI Key>
CWERGRDVMFNCDR-UHFFFAOYSA-N

> <BindingDB MonomerID>
50336509

> <BindingDB Ligand Name>
CHEMBL116455::Mercapto-acetic acid::Mercaptoacetic acid::SULFANYLACETIC ACID

> <Target Name>
Beta-lactamase

> <Target Source Organism According to Curator or DataSource>
Pseudomonas aeruginosa

> <Ki (nM)>
 180

> <IC50 (nM)>


> <Kd (nM)>


> <EC50 (nM)>


> <kon (M-1-s-1)>


> <koff (s-1)>


> <pH>


> <Temp C>


> <Curation/DataSource>
ChEMBL

> <Article DOI>
10.1128/AAC.01397-09

> <BindingDB Entry DOI>
10.7270/Q29C6XQ2

> <PMID>
20606062

> <PubChem AID>


> <Patent Number>


> <Authors>
Ishii, Y; Eto, M; Mano, Y; Tateda, K; Yamaguchi, K

> <Institution>
Toho University School of Medicine

> <Link to Ligand in BindingDB>
http://www.bindingdb.org/bind/chemsearch/marvin/MolStructure.jsp?monomerid=50336509

> <Link to Ligand-Target Pair in BindingDB>
http://www.bindingdb.org/jsp/dbsearch/PrimarySearch_ki.jsp?energyterm=kJ/mole&tag=pol&polymerid=4684&target=Beta-lactamase&column=ki&startPg=0&Increment=50&submit=Search

> <Link to Ligand-Target Pair in BindingDB>
http://www.bindingdb.org/jsp/dbsearch/PrimarySearch_ki.jsp?energyterm=kJ/mole&tag=r21&monomerid=50336509&enzyme=Beta-lactamase&column=ki&startPg=0&Increment=50&submit=Search

> <Ligand HET ID in PDB>
MCR

> <PDB ID(s) for Ligand-Target Complex>
6JED,1T0S,1T0Q,3VQZ,3W92

> <PubChem CID of Ligand>
1133

> <PubChem SID of Ligand>
125086611

> <ChEBI ID of Ligand>
43923

> <ChEMBL ID of Ligand>
CHEMBL116455

> <DrugBank ID of Ligand>


> <IUPHAR_GRAC ID of Ligand>


> <KEGG ID of Ligand>
C02086

> <ZINC ID of Ligand>
ZINC04658574

> <Number of Protein Chains in Target (bigger than 1 implies a multichain complex)>
1

> <BindingDB Target Chain Sequence>
MSKLSVFFIFLFCSIATAAESLPDLKIEKLDEGVYVHTSFEEVNGWGVVPKHGLVVLVNAEAYLIDTPFTAKDTEKLVTWFVERGYKIKGSISSHFHSDSTGGIEWLNSRSIPTYASELTNELLKKDGKVQATNSFSGVNYWLVKNKIEVFYPGPGHTPDNVVVWLPERKILFGGCFIKPYGLGNLGDANIEAWPKSAKLLKSKYGKAKLVVPSHSEVGDASLLKLTLEQAVKGLNESKKPSKPSN

> <PDB ID(s) of Target Chain>
1DD6,1DDK,1JJE,1JJT,1VGN,2DOO,3WXC,4C1F,4C1G,4UAM,5EV6,5EV8,5EWA,5Y5B,6JED,6LBL,6ZYR,6ZYS,7DTM,7XHW,7YH9,7YHA

> <UniProt (SwissProt) Recommended Name of Target Chain>


> <UniProt (SwissProt) Entry Name of Target Chain>


> <UniProt (SwissProt) Primary ID of Target Chain>


> <UniProt (SwissProt) Secondary ID(s) of Target Chain>


> <UniProt (SwissProt) Alternative ID(s) of Target Chain>


> <UniProt (TrEMBL) Submitted Name of Target Chain>
Beta-lactamase

> <UniProt (TrEMBL) Entry Name of Target Chain>
Q79MP6_PSEAI

> <UniProt (TrEMBL) Primary ID of Target Chain>
Q79MP6

> <UniProt (TrEMBL) Secondary ID(s) of Target Chain>


> <UniProt (TrEMBL) Alternative ID(s) of Target Chain>


$$$$

  Mrv0541 11231414382D          

 23 25  0  0  0  0            999 V2000
   -2.0982    1.3012    0.0000 C   0  0  0  0  0  0  0  0  0  0  0  0
   -2.8090    0.8863    0.0000 C   0  0  0  0  0  0  0  0  0  0  0  0
   -2.8020    0.0600    0.0000 C   0  0  0  0  0  0  0  0  0  0  0  0
   -2.0881   -0.3435    0.0000 C   0  0  0  0  0  0  0  0  0  0  0  0
   -1.3849    0.8940    0.0000 C   0  0  0  0  0  0  0  0  0  0  0  0
   -1.3789    0.0663    0.0000 C   0  0  0  0  0  0  0  0  0  0  0  0
   -0.6630   -0.3401    0.0000 O   0  0  0  0  0  0  0  0  0  0  0  0
   -0.6751    1.3153    0.0000 C   0  0  0  0  0  0  0  0  0  0  0  0
    0.0453    0.9044    0.0000 C   0  0  0  0  0  0  0  0  0  0  0  0
    0.0499    0.0748    0.0000 C   0  0  0  0  0  0  0  0  0  0  0  0
    0.7666   -0.3338    0.0000 C   0  0  0  0  0  0  0  0  0  0  0  0
    1.4835    0.0827    0.0000 C   0  0  0  0  0  0  0  0  0  0  0  0
    1.4789    0.9123    0.0000 O   0  0  0  0  0  0  0  0  0  0  0  0
    0.7575    1.3254    0.0000 C   0  0  0  0  0  0  0  0  0  0  0  0
   -3.5262    1.2941    0.0000 O   0  0  0  0  0  0  0  0  0  0  0  0
   -3.5128   -0.3588    0.0000 O   0  0  0  0  0  0  0  0  0  0  0  0
   -2.1022    2.1262    0.0000 C   0  0  0  0  0  0  0  0  0  0  0  0
   -1.3897    2.5421    0.0000 O   0  0  0  0  0  0  0  0  0  0  0  0
   -2.8186    2.5352    0.0000 O   0  0  0  0  0  0  0  0  0  0  0  0
   -0.6823    2.1403    0.0000 O   0  0  0  0  0  0  0  0  0  0  0  0
    0.7519    2.1504    0.0000 O   0  0  0  0  0  0  0  0  0  0  0  0
    1.4635    2.5678    0.0000 C   0  0  0  0  0  0  0  0  0  0  0  0
    2.1996   -0.3269    0.0000 C   0  0  0  0  0  0  0  0  0  0  0  0
  1  2  1  0  0  0  0
  5  1  2  0  0  0  0
  2  3  2  0  0  0  0
  9 14  1  0  0  0  0
 10 11  1  0  0  0  0
 11 12  2  0  0  0  0
 12 13  1  0  0  0  0
 13 14  1  0  0  0  0
  2 15  1  0  0  0  0
  5  8  1  0  0  0  0
  3 16  1  0  0  0  0
  6  7  1  0  0  0  0
  1 17  1  0  0  0  0
  7 10  1  0  0  0  0
 17 18  2  0  0  0  0
  9  8  1  0  0  0  0
 17 19  1  0  0  0  0
  9 10  2  0  0  0  0
  8 20  2  0  0  0  0
  3  4  1  0  0  0  0
 14 21  1  0  0  0  0
  4  6  2  0  0  0  0
 21 22  1  0  0  0  0
  5  6  1  0  0  0  0
 12 23  1  0  0  0  0
M  END
> <From>
www.bindingDB.org

> <BindingDB Reactant_set_id>
50622366

> <Ligand InChI>
InChI=1S/C15H12O8/c1-5-3-7-10(15(21-2)22-5)13(18)9-8(23-7)4-6(16)12(17)11(9)14(19)20/h3-4,15-17H,1-2H3,(H,19,20)

> <Ligand InChI Key>
CBEPLTZXYMLBAP-UHFFFAOYSA-N

> <BindingDB MonomerID>
50336510

> <BindingDB Ligand Name>
7,8-dihydroxy-1-methoxy-3-methyl-10-oxo-1,10-dihydropyrano[4,3-b]chromene-9-carboxylic acid::CHEMBL1673300

> <Target Name>
Beta-lactamase

> <Target Source Organism According to Curator or DataSource>
Pseudomonas aeruginosa

> <Ki (nM)>
 180

> <IC50 (nM)>


> <Kd (nM)>


> <EC50 (nM)>


> <kon (M-1-s-1)>


> <koff (s-1)>


> <pH>


> <Temp C>


> <Curation/DataSource>
ChEMBL

> <Article DOI>
10.1128/AAC.01397-09

> <BindingDB Entry DOI>
10.7270/Q29C6XQ2

> <PMID>
20606062

> <PubChem AID>


> <Patent Number>


> <Authors>
Ishii, Y; Eto, M; Mano, Y; Tateda, K; Yamaguchi, K

> <Institution>
Toho University School of Medicine

> <Link to Ligand in BindingDB>
http://www.bindingdb.org/bind/chemsearch/marvin/MolStructure.jsp?monomerid=50336510

> <Link to Ligand-Target Pair in BindingDB>
http://www.bindingdb.org/jsp/dbsearch/PrimarySearch_ki.jsp?energyterm=kJ/mole&tag=pol&polymerid=4684&target=Beta-lactamase&column=ki&startPg=0&Increment=50&submit=Search

> <Link to Ligand-Target Pair in BindingDB>
http://www.bindingdb.org/jsp/dbsearch/PrimarySearch_ki.jsp?energyterm=kJ/mole&tag=r21&monomerid=50336510&enzyme=Beta-lactamase&column=ki&startPg=0&Increment=50&submit=Search

> <Ligand HET ID in PDB>


> <PDB ID(s) for Ligand-Target Complex>


> <PubChem CID of Ligand>
9883541

> <PubChem SID of Ligand>
125086612

> <ChEBI ID of Ligand>


> <ChEMBL ID of Ligand>
CHEMBL1673300

> <DrugBank ID of Ligand>


> <IUPHAR_GRAC ID of Ligand>


> <KEGG ID of Ligand>


> <ZINC ID of Ligand>
ZINC14163802

> <Number of Protein Chains in Target (bigger than 1 implies a multichain complex)>
1

> <BindingDB Target Chain Sequence>
MSKLSVFFIFLFCSIATAAESLPDLKIEKLDEGVYVHTSFEEVNGWGVVPKHGLVVLVNAEAYLIDTPFTAKDTEKLVTWFVERGYKIKGSISSHFHSDSTGGIEWLNSRSIPTYASELTNELLKKDGKVQATNSFSGVNYWLVKNKIEVFYPGPGHTPDNVVVWLPERKILFGGCFIKPYGLGNLGDANIEAWPKSAKLLKSKYGKAKLVVPSHSEVGDASLLKLTLEQAVKGLNESKKPSKPSN

> <PDB ID(s) of Target Chain>
1DD6,1DDK,1JJE,1JJT,1VGN,2DOO,3WXC,4C1F,4C1G,4UAM,5EV6,5EV8,5EWA,5Y5B,6JED,6LBL,6ZYR,6ZYS,7DTM,7XHW,7YH9,7YHA

> <UniProt (SwissProt) Recommended Name of Target Chain>


> <UniProt (SwissProt) Entry Name of Target Chain>


> <UniProt (SwissProt) Primary ID of Target Chain>


> <UniProt (SwissProt) Secondary ID(s) of Target Chain>


> <UniProt (SwissProt) Alternative ID(s) of Target Chain>


> <UniProt (TrEMBL) Submitted Name of Target Chain>
Beta-lactamase

> <UniProt (TrEMBL) Entry Name of Target Chain>
Q79MP6_PSEAI

> <UniProt (TrEMBL) Primary ID of Target Chain>
Q79MP6

> <UniProt (TrEMBL) Secondary ID(s) of Target Chain>


> <UniProt (TrEMBL) Alternative ID(s) of Target Chain>


$$$$
 
  Mrv0541 11231401202D          

 20 22  0  0  0  0            999 V2000
   -0.2155  -25.4931    0.0000 C   0  0  0  0  0  0  0  0  0  0  0  0
   -0.2155  -26.3181    0.0000 C   0  0  0  0  0  0  0  0  0  0  0  0
    0.6095  -25.4931    0.0000 C   0  0  2  0  0  0  0  0  0  0  0  0
    0.6140  -26.3180    0.0000 N   0  0  0  0  0  0  0  0  0  0  0  0
    1.4001  -26.5687    0.0000 C   0  0  2  0  0  0  0  0  0  0  0  0
    1.8814  -25.8985    0.0000 C   0  0  2  0  0  0  0  0  0  0  0  0
    1.3927  -25.2339    0.0000 S   0  0  0  0  0  0  0  0  0  0  0  0
   -0.7988  -26.9014    0.0000 O   0  0  0  0  0  0  0  0  0  0  0  0
    2.1817  -25.0164    0.0000 O   0  0  0  0  0  0  0  0  0  0  0  0
    0.9717  -24.5168    0.0000 O   0  0  0  0  0  0  0  0  0  0  0  0
    1.6593  -27.3520    0.0000 C   0  0  0  0  0  0  0  0  0  0  0  0
    1.1106  -27.9680    0.0000 O   0  0  0  0  0  0  0  0  0  0  0  0
    2.4672  -27.5191    0.0000 O   0  0  0  0  0  0  0  0  0  0  0  0
    2.5897  -25.4793    0.0000 C   0  0  0  0  0  0  0  0  0  0  0  0
    2.5897  -26.3089    0.0000 C   0  0  0  0  0  0  0  0  0  0  0  0
    3.3001  -25.8918    0.0000 N   0  0  0  0  0  0  0  0  0  0  0  0
    4.0569  -26.2172    0.0000 N   0  0  0  0  0  0  0  0  0  0  0  0
    4.6036  -25.6010    0.0000 N   0  0  0  0  0  0  0  0  0  0  0  0
    4.1865  -24.8905    0.0000 C   0  0  0  0  0  0  0  0  0  0  0  0
    3.3820  -25.0678    0.0000 C   0  0  0  0  0  0  0  0  0  0  0  0
  7 10  2  0  0  0  0
  3  1  1  0  0  0  0
  5 11  1  6  0  0  0
  3  4  1  1  0  0  0
 11 12  1  0  0  0  0
  5  4  1  0  0  0  0
 11 13  2  0  0  0  0
  5  6  1  0  0  0  0
  6 14  1  6  0  0  0
  6  7  1  0  0  0  0
  6 15  1  1  0  0  0
  3  7  1  0  0  0  0
 15 16  1  0  0  0  0
 16 17  1  0  0  0  0
  2  8  2  0  0  0  0
  1  2  1  0  0  0  0
  7  9  2  0  0  0  0
 17 18  2  0  0  0  0
 18 19  1  0  0  0  0
 19 20  2  0  0  0  0
 20 16  1  0  0  0  0
  2  4  1  0  0  0  0
M  END
> <From>
www.bindingDB.org

> <BindingDB Reactant_set_id>
51270512

> <Ligand InChI>
InChI=1S/C10H12N4O5S/c1-10(5-13-3-2-11-12-13)8(9(16)17)14-6(15)4-7(14)20(10,18)19/h2-3,7-8H,4-5H2,1H3,(H,16,17)/t7-,8+,10+/m1/s1

> <Ligand InChI Key>
LPQZKKCYTLCDGQ-WEDXCCLWSA-N

> <BindingDB MonomerID>
50053173

> <BindingDB Ligand Name>
(2S,3S,5R)-3-Methyl-4,4,7-trioxo-3-[1,2,3]triazol-1-ylmethyl-4-thia-1-aza-bicyclo[3.2.0]heptane-2-carboxylic acid::(2S,3S,5R)-3-Methyl-4,4,7-trioxo-3-[1,2,3]triazol-1-ylmethyl-4lambda 6-thia-1-aza-bicyclo[3.2.0]heptane-2-carboxylic acid::(2S,3S,5R)-3-methyl-4,4,7-trioxo-3-[1,2,3]triazol-1-ylmethyl-4lambda6-thia-1-aza-bicyclo[3.2.0]heptane-2-carboxylic acid::(2S,3S,5R)-3-methyl-7-oxo-3-(1H-1,2,3-triazol-1-ylmethyl)-4-thia-1-azabicyclo[3.2.0]heptane-2-carboxylic acid 4,4-dioxide::3-Methyl-4,4,7-trioxo-3-[1,2,3]triazol-1-ylmethyl-4lambda*6*-thia-1-aza-bicyclo[3.2.0]heptane-2-carboxylic acid::CHEMBL404::CL-298741::TAZOBACTAM::US9120808, Tazobactam sodium salt::US9676777, TAZ::YTR-830H::Zosyn

> <Target Name>
Beta-lactamase TEM

> <Target Source Organism According to Curator or DataSource>


> <Ki (nM)>
 190

> <IC50 (nM)>


> <Kd (nM)>


> <EC50 (nM)>


> <kon (M-1-s-1)>


> <koff (s-1)>


> <pH>


> <Temp C>


> <Curation/DataSource>
ChEMBL

> <Article DOI>
10.1021/acs.jmedchem.9b00735

> <BindingDB Entry DOI>
10.7270/Q22R3W2M

> <PMID>
31269398

> <PubChem AID>


> <Patent Number>


> <Authors>
Wang, YL; Liu, S; Yu, ZJ; Lei, Y; Huang, MY; Yan, YH; Ma, Q; Zheng, Y; Deng, H; Sun, Y; Wu, C; Yu, Y; Chen, Q; Wang, Z; Wu, Y; Li, GB

> <Institution>
Sichuan University

> <Link to Ligand in BindingDB>
http://www.bindingdb.org/bind/chemsearch/marvin/MolStructure.jsp?monomerid=50053173

> <Link to Ligand-Target Pair in BindingDB>
http://www.bindingdb.org/jsp/dbsearch/PrimarySearch_ki.jsp?energyterm=kJ/mole&tag=pol&polymerid=7704&target=Beta-lactamase+TEM&column=ki&startPg=0&Increment=50&submit=Search

> <Link to Ligand-Target Pair in BindingDB>
http://www.bindingdb.org/jsp/dbsearch/PrimarySearch_ki.jsp?energyterm=kJ/mole&tag=r21&monomerid=50053173&enzyme=Beta-lactamase+TEM&column=ki&startPg=0&Increment=50&submit=Search

> <Ligand HET ID in PDB>
TAZ

> <PDB ID(s) for Ligand-Target Complex>
1VM1

> <PubChem CID of Ligand>
123630

> <PubChem SID of Ligand>
103949887

> <ChEBI ID of Ligand>
9421

> <ChEMBL ID of Ligand>
CHEMBL404

> <DrugBank ID of Ligand>
DB01606

> <IUPHAR_GRAC ID of Ligand>


> <KEGG ID of Ligand>
C07771

> <ZINC ID of Ligand>
ZINC03787060

> <Number of Protein Chains in Target (bigger than 1 implies a multichain complex)>
1

> <BindingDB Target Chain Sequence>
MSIQHFRVALIPFFAAFCLPVFAHPETLVKVKDAEDQLGARVGYIELDLNSGKILESFRPEERFPMMSTFKVLLCGAVLSRVDAGQEQLGRRIHYSQNDLVEYSPVTEKHLTDGMTVRELCSAAITMSDNTAANLLLTTIGGPKELTAFLHNMGDHVTRLDRWEPELNEAIPNDERDTTMPAAMATTLRKLLTGELLTLASRQQLIDWMEADKVAGPLLRSALPAGWFIADKSGAGERGSRGIIAALGPDGKPSRIVVIYTTGSQATMDERNRQIAEIGASLIKHW

> <PDB ID(s) of Target Chain>
1ERM,1ERO,1ERQ,1ESU,1FQG,1JTD,1JVJ,1JWP,1JWV,1LHY,1LI9,1M40,1NXY,1NY0,1NYM,1NYY,1PZO,1PZP,1S0W,1XPB,1YT4,2V1Z,2V20,3CMZ,3DTM,3JYI,3P98,4DXB,4DXC,4GKU,4ZJ2,5AQ8,5HVI,5HW1,5HW5,5NPO,6B2N,7QLP,7QNK,7U6Q,8DE0

> <UniProt (SwissProt) Recommended Name of Target Chain>
Beta-lactamase TEM

> <UniProt (SwissProt) Entry Name of Target Chain>
BLAT_ECOLX

> <UniProt (SwissProt) Primary ID of Target Chain>
P62593

> <UniProt (SwissProt) Secondary ID(s) of Target Chain>
P00810 Q47313

> <UniProt (SwissProt) Alternative ID(s) of Target Chain>


> <UniProt (TrEMBL) Submitted Name of Target Chain>


> <UniProt (TrEMBL) Entry Name of Target Chain>


> <UniProt (TrEMBL) Primary ID of Target Chain>


> <UniProt (TrEMBL) Secondary ID(s) of Target Chain>


> <UniProt (TrEMBL) Alternative ID(s) of Target Chain>


$$$$

  Mrv0541 11231401522D          

 18 19  0  0  0  0            999 V2000
   -0.2208   -2.6417    0.0000 B   0  0  0  0  0  0  0  0  0  0  0  0
    5.5417   -2.6542    0.0000 B   0  0  0  0  0  0  0  0  0  0  0  0
    4.7167   -2.6542    0.0000 C   0  0  0  0  0  0  0  0  0  0  0  0
    0.6042   -2.6417    0.0000 C   0  0  0  0  0  0  0  0  0  0  0  0
    2.2417   -2.6500    0.0000 C   0  0  0  0  0  0  0  0  0  0  0  0
    3.0667   -2.6500    0.0000 C   0  0  0  0  0  0  0  0  0  0  0  0
    4.3042   -3.3667    0.0000 C   0  0  0  0  0  0  0  0  0  0  0  0
    1.0042   -3.3625    0.0000 C   0  0  0  0  0  0  0  0  0  0  0  0
    4.3042   -1.9375    0.0000 C   0  0  0  0  0  0  0  0  0  0  0  0
    1.0167   -1.9375    0.0000 C   0  0  0  0  0  0  0  0  0  0  0  0
    1.8375   -1.9375    0.0000 C   0  0  0  0  0  0  0  0  0  0  0  0
    3.4792   -3.3667    0.0000 C   0  0  0  0  0  0  0  0  0  0  0  0
    3.4792   -1.9375    0.0000 C   0  0  0  0  0  0  0  0  0  0  0  0
    1.8292   -3.3667    0.0000 C   0  0  0  0  0  0  0  0  0  0  0  0
   -0.8083   -3.2250    0.0000 O   0  0  0  0  0  0  0  0  0  0  0  0
   -0.6333   -1.9250    0.0000 O   0  0  0  0  0  0  0  0  0  0  0  0
    5.9542   -1.9375    0.0000 O   0  0  0  0  0  0  0  0  0  0  0  0
    5.9542   -3.3667    0.0000 O   0  0  0  0  0  0  0  0  0  0  0  0
  2  3  1  0  0  0  0
  3  9  2  0  0  0  0
  4  1  1  0  0  0  0
  5 11  1  0  0  0  0
  6  5  1  0  0  0  0
  7 12  2  0  0  0  0
  8  4  2  0  0  0  0
  9 13  1  0  0  0  0
 10  4  1  0  0  0  0
 11 10  2  0  0  0  0
 12  6  1  0  0  0  0
 13  6  2  0  0  0  0
 14  8  1  0  0  0  0
 15  1  1  0  0  0  0
 16  1  1  0  0  0  0
 17  2  1  0  0  0  0
 18  2  1  0  0  0  0
  5 14  2  0  0  0  0
  3  7  1  0  0  0  0
M  END
> <From>
www.bindingDB.org

> <BindingDB Reactant_set_id>
50117307

> <Ligand InChI>
InChI=1S/C12H12B2O4/c15-13(16)11-5-1-9(2-6-11)10-3-7-12(8-4-10)14(17)18/h1-8,15-18H

> <Ligand InChI Key>
SLHKDOGTVUCXKX-UHFFFAOYSA-N

> <BindingDB MonomerID>
50067910

> <BindingDB Ligand Name>
4,4'-Bis-dihydroxyboranyl-biphenyl::4,4'-biphenyldiboronic acid::CHEMBL109227::biphenyl-4,4'-diyldiboronic acid

> <Target Name>
Beta-lactamase

> <Target Source Organism According to Curator or DataSource>
Escherichia coli

> <Ki (nM)>
 200

> <IC50 (nM)>


> <Kd (nM)>


> <EC50 (nM)>


> <kon (M-1-s-1)>


> <koff (s-1)>


> <pH>


> <Temp C>


> <Curation/DataSource>
ChEMBL

> <Article DOI>
10.1021/jm980343w

> <BindingDB Entry DOI>
10.7270/Q22N51FX

> <PMID>
9804697

> <PubChem AID>


> <Patent Number>


> <Authors>
Weston, GS; Blazquez, J; Baquero, F; Shoichet, BK

> <Institution>
Northwestern University Medical School

> <Link to Ligand in BindingDB>
http://www.bindingdb.org/bind/chemsearch/marvin/MolStructure.jsp?monomerid=50067910

> <Link to Ligand-Target Pair in BindingDB>
http://www.bindingdb.org/jsp/dbsearch/PrimarySearch_ki.jsp?energyterm=kJ/mole&tag=pol&polymerid=4401&target=Beta-lactamase&column=ki&startPg=0&Increment=50&submit=Search

> <Link to Ligand-Target Pair in BindingDB>
http://www.bindingdb.org/jsp/dbsearch/PrimarySearch_ki.jsp?energyterm=kJ/mole&tag=r21&monomerid=50067910&enzyme=Beta-lactamase&column=ki&startPg=0&Increment=50&submit=Search

> <Ligand HET ID in PDB>
BDB

> <PDB ID(s) for Ligand-Target Complex>
1KE3

> <PubChem CID of Ligand>
2734608

> <PubChem SID of Ligand>
103962336

> <ChEBI ID of Ligand>


> <ChEMBL ID of Ligand>
CHEMBL109227

> <DrugBank ID of Ligand>
DB02627

> <IUPHAR_GRAC ID of Ligand>


> <KEGG ID of Ligand>


> <ZINC ID of Ligand>


> <Number of Protein Chains in Target (bigger than 1 implies a multichain complex)>
1

> <BindingDB Target Chain Sequence>
MFKTTLCALLITASCSTFAAPQQINDIVHRTITPLIEQQKIPGMAVAVIYQGKPYYFTWGYADIAKKQPVTQQTLFELGSVSKTFTGVLGGDAIARGEIKLSDPTTKYWPELTAKQWNGITLLHLATYTAGGLPLQVPDEVKSSSDLLRFYQNWQPAWAPGTQRLYANSSIGLFGALAVKPSGLSFEQAMQTRVFQPLKLNHTWINVPPAEEKNYAWGYREGKAVHVSPGALDAEAYGVKSTIEDMARWVQSNLKPLDINEKTLQQGIQLAQSRYWQTGDMYQGLGWEMLDWPVNPDSIINGSDNKIALAARPVKAITPPTPAVRASWVHKTGATGGFGSYVAFIPEKELGIVMLANKNYPNPARVDAAWQILNALQ

> <PDB ID(s) of Target Chain>
1C3B,1FCO,1FSW,1FSY,1GA9,1IEL,1IEM,1KDS,1KDW,1KE0,1KE3,1KE4,1KVM,1L2S,1LL5,1LL9,1LLB,1MXO,1MY8,1XGI,1XGJ,2BLS,2HDQ,2HDR,2HDS,2HDU,2I72,2P9V,2PU2,2PU4,2R9W,2R9X,2RCX,3BLS,3BM6,3GQZ,3GR2,3GRJ,3GSG,3GTC,3GV9,3GVB,3O86,3O87,3O88,4E3I,4E3J,4E3K,4E3L,4E3M,4E3N,4E3O,4JXG,4JXS,4JXV,4JXW,4KG2,4KZ3,4KZ4,4KZ5,4KZ6,4KZ7,4KZ8,4KZ9,4KZA,4KZB,4LV0,4LV1,4LV2,4LV3,4OKP,4OLD,4OLG,6DPT,6DPX,6DPY,6DPZ,6T35,6T3D,6T5Y,6T7L,6TBW,6TPM,6WGQ,6YEN,6YEO,6YPD

> <UniProt (SwissProt) Recommended Name of Target Chain>
Beta-lactamase

> <UniProt (SwissProt) Entry Name of Target Chain>
AMPC_ECOLI

> <UniProt (SwissProt) Primary ID of Target Chain>
P00811

> <UniProt (SwissProt) Secondary ID(s) of Target Chain>
Q2M6F2

> <UniProt (SwissProt) Alternative ID(s) of Target Chain>


> <UniProt (TrEMBL) Submitted Name of Target Chain>


> <UniProt (TrEMBL) Entry Name of Target Chain>


> <UniProt (TrEMBL) Primary ID of Target Chain>


> <UniProt (TrEMBL) Secondary ID(s) of Target Chain>


> <UniProt (TrEMBL) Alternative ID(s) of Target Chain>


$$$$

  Mrv0541 01081602572D          

 21 24  0  0  0  0            999 V2000
    5.0384    1.2001    0.0000 N   0  0  0  0  0  0  0  0  0  0  0  0
    5.8634    1.2001    0.0000 C   0  0  0  0  0  0  0  0  0  0  0  0
    4.7834    0.4155    0.0000 N   0  0  0  0  0  0  0  0  0  0  0  0
    5.4509   -0.0694    0.0000 C   0  0  0  0  0  0  0  0  0  0  0  0
    6.1183    0.4155    0.0000 C   0  0  0  0  0  0  0  0  0  0  0  0
    5.4509   -0.8944    0.0000 C   0  0  0  0  0  0  0  0  0  0  0  0
    6.1653   -1.3069    0.0000 C   0  0  0  0  0  0  0  0  0  0  0  0
    6.9903   -1.3069    0.0000 C   0  0  0  0  0  0  0  0  0  0  0  0
    6.1653   -2.1319    0.0000 C   0  0  0  0  0  0  0  0  0  0  0  0
    6.9903   -2.1319    0.0000 N   0  0  0  0  0  0  0  0  0  0  0  0
    7.7749   -2.3868    0.0000 C   0  0  0  0  0  0  0  0  0  0  0  0
    8.2598   -1.7194    0.0000 C   0  0  0  0  0  0  0  0  0  0  0  0
    7.7750   -1.0520    0.0000 S   0  0  0  0  0  0  0  0  0  0  0  0
    5.5820   -2.7153    0.0000 O   0  0  0  0  0  0  0  0  0  0  0  0
    8.0298   -3.1715    0.0000 C   0  0  0  0  0  0  0  0  0  0  0  0
    8.8368   -3.3430    0.0000 O   0  0  0  0  0  0  0  0  0  0  0  0
    7.4778   -3.7846    0.0000 O   0  5  0  0  0  0  0  0  0  0  0  0
    4.6259    1.9146    0.0000 C   0  0  0  0  0  0  0  0  0  0  0  0
    5.0384    2.6291    0.0000 S   0  0  0  0  0  0  0  0  0  0  0  0
    5.8634    2.6291    0.0000 C   0  0  0  0  0  0  0  0  0  0  0  0
    6.2759    1.9146    0.0000 C   0  0  0  0  0  0  0  0  0  0  0  0
  1  3  4  0  0  0  0
  2  5  4  0  0  0  0
  3  4  4  0  0  0  0
  4  5  4  0  0  0  0
  4  6  1  0  0  0  0
  6  7  2  0  0  0  0
  7  8  1  0  0  0  0
  7  9  1  0  0  0  0
  9 10  1  0  0  0  0
 10 11  1  0  0  0  0
  8 10  1  0  0  0  0
  8 13  1  0  0  0  0
 11 12  2  0  0  0  0
 12 13  1  0  0  0  0
  9 14  2  0  0  0  0
 11 15  1  0  0  0  0
 15 16  2  0  0  0  0
 15 17  1  0  0  0  0
  2 21  1  0  0  0  0
  2  1  4  0  0  0  0
  1 18  1  0  0  0  0
 18 19  1  0  0  0  0
 19 20  1  0  0  0  0
 20 21  1  0  0  0  0
M  CHG  1  17  -1
M  END
> <From>
www.bindingDB.org

> <BindingDB Reactant_set_id>
293381

> <Ligand InChI>
InChI=1S/C13H11N3O3S2/c17-11-9(12-16(11)10(5-21-12)13(18)19)4-7-3-8-1-2-20-6-15(8)14-7/h3-5,12H,1-2,6H2,(H,18,19)/p-1/b9-4-

> <Ligand InChI Key>
IKNPDLCLBOGEQM-WTKPLQERSA-M

> <BindingDB MonomerID>
152733

> <BindingDB Ligand Name>
Penem 2

> <Target Name>
Beta-lactamase

> <Target Source Organism According to Curator or DataSource>


> <Ki (nM)>
 2e+2

> <IC50 (nM)>


> <Kd (nM)>


> <EC50 (nM)>


> <kon (M-1-s-1)>


> <koff (s-1)>


> <pH>
7.2

> <Temp C>


> <Curation/DataSource>
Curated from the literature by BindingDB

> <Article DOI>
10.1021/acs.biochem.5b00698

> <BindingDB Entry DOI>
10.7270/Q29W0D7G

> <PMID>
26237118

> <PubChem AID>
aid1801074

> <Patent Number>


> <Authors>
Hazra, S; Kurz, SG; Wolff, K; Nguyen, L; Bonomo, RA; Blanchard, JS

> <Institution>
Indian Institute of Technology

> <Link to Ligand in BindingDB>
http://www.bindingdb.org/bind/chemsearch/marvin/MolStructure.jsp?monomerid=152733

> <Link to Ligand-Target Pair in BindingDB>
http://www.bindingdb.org/jsp/dbsearch/PrimarySearch_ki.jsp?energyterm=kJ/mole&tag=pol&polymerid=7006&target=Beta-lactamase&column=ki&startPg=0&Increment=50&submit=Search

> <Link to Ligand-Target Pair in BindingDB>
http://www.bindingdb.org/jsp/dbsearch/PrimarySearch_ki.jsp?energyterm=kJ/mole&tag=r21&monomerid=152733&enzyme=Beta-lactamase&column=ki&startPg=0&Increment=50&submit=Search

> <Ligand HET ID in PDB>


> <PDB ID(s) for Ligand-Target Complex>


> <PubChem CID of Ligand>
91937861

> <PubChem SID of Ligand>
252826983

> <ChEBI ID of Ligand>


> <ChEMBL ID of Ligand>


> <DrugBank ID of Ligand>


> <IUPHAR_GRAC ID of Ligand>


> <KEGG ID of Ligand>


> <ZINC ID of Ligand>


> <Number of Protein Chains in Target (bigger than 1 implies a multichain complex)>
1

> <BindingDB Target Chain Sequence>
MRNRGFGRRELLVAMAMLVSVTGCARHASGARPASTTLPAGADLADRFAELERRYDARLGVYVPATGTTA
AIEYRADERFAFCSTFKAPLVAAVLHQNPLTHLDKLITYTSDDIRSISPVAQQHVQTGMTIGQLCDAAIR
YSDGTAANLLLADLGGPGGGTAAFTGYLRSLGDTVSRLDAEEPELNRDPPGDERDTTTPHAIALVLQQLV
LGNALPPDKRALLTDWMARNTTGAKRIRAGFPADWKVIDKTGTGDYGRANDIAVVWSPTGVPYVVAVMSD
RAGGGYDAEPREALLAEAATCVAGVLA

> <PDB ID(s) of Target Chain>
2GDN,3CG5,3DWZ,3IQA,3M6B,3M6H,3ZHH,4DF6,4Q8I,4QHC,4X6T,5NJ2,5OYO,6B5X,6B5Y,6B68,6B69,6B6A,6B6B,6B6C,6B6D,6B6E,6B6F,6H2C,6H2G,6H2H,6H2I,6H2K,7K8E,7K8F,7K8H,7K8K,7K8L,8BV4,8EBI,8EBR,8EC4,8ECF

> <UniProt (SwissProt) Recommended Name of Target Chain>
Beta-lactamase

> <UniProt (SwissProt) Entry Name of Target Chain>
BLAC_MYCTO

> <UniProt (SwissProt) Primary ID of Target Chain>
P9WKD2

> <UniProt (SwissProt) Secondary ID(s) of Target Chain>
L0T8I9 P0A5I6 P0C5C1 Q10670

> <UniProt (SwissProt) Alternative ID(s) of Target Chain>


> <UniProt (TrEMBL) Submitted Name of Target Chain>


> <UniProt (TrEMBL) Entry Name of Target Chain>


> <UniProt (TrEMBL) Primary ID of Target Chain>


> <UniProt (TrEMBL) Secondary ID(s) of Target Chain>


> <UniProt (TrEMBL) Alternative ID(s) of Target Chain>


$$$$
 
  Mrv0541 11221409272D          

 36 39  0  0  0  0            999 V2000
   -1.0806   -5.8666    0.0000 C   0  0  0  0  0  0  0  0  0  0  0  0
   -1.0818   -6.6940    0.0000 C   0  0  0  0  0  0  0  0  0  0  0  0
   -0.3669   -7.1069    0.0000 C   0  0  0  0  0  0  0  0  0  0  0  0
    0.3495   -6.6935    0.0000 C   0  0  0  0  0  0  0  0  0  0  0  0
    0.3466   -5.8630    0.0000 C   0  0  0  0  0  0  0  0  0  0  0  0
   -0.3687   -5.4539    0.0000 C   0  0  0  0  0  0  0  0  0  0  0  0
   -0.3671   -7.9319    0.0000 C   0  0  1  0  0  0  0  0  0  0  0  0
   -1.0817   -8.3442    0.0000 N   0  0  0  0  0  0  0  0  0  0  0  0
    0.3472   -8.3445    0.0000 C   0  0  0  0  0  0  0  0  0  0  0  0
    0.3470   -9.1695    0.0000 O   0  0  0  0  0  0  0  0  0  0  0  0
    1.0618   -7.9322    0.0000 N   0  0  0  0  0  0  0  0  0  0  0  0
    1.7762   -8.3449    0.0000 C   0  0  2  0  0  0  0  0  0  0  0  0
    1.9926   -9.1397    0.0000 C   0  0  0  0  0  0  0  0  0  0  0  0
    2.5761   -8.1280    0.0000 C   0  0  2  0  0  0  0  0  0  0  0  0
    2.7895   -8.9263    0.0000 N   0  0  0  0  0  0  0  0  0  0  0  0
    3.6148   -8.9701    0.0000 C   0  0  2  0  0  0  0  0  0  0  0  0
    3.9114   -8.1987    0.0000 C   0  0  0  0  0  0  0  0  0  0  0  0
    3.2694   -7.6784    0.0000 S   0  0  0  0  0  0  0  0  0  0  0  0
    4.3167   -7.4792    0.0000 C   0  0  0  0  0  0  0  0  0  0  0  0
    4.5312   -8.7431    0.0000 C   0  0  0  0  0  0  0  0  0  0  0  0
    4.0637   -9.6622    0.0000 C   0  0  0  0  0  0  0  0  0  0  0  0
    3.6891  -10.4001    0.0000 O   0  0  0  0  0  0  0  0  0  0  0  0
    4.8880   -9.6225    0.0000 O   0  0  0  0  0  0  0  0  0  0  0  0
   -1.7961   -7.9315    0.0000 C   0  0  0  0  0  0  0  0  0  0  0  0
   -2.5107   -8.3438    0.0000 N   0  0  0  0  0  0  0  0  0  0  0  0
   -1.7959   -7.1065    0.0000 O   0  0  0  0  0  0  0  0  0  0  0  0
   -3.2218   -7.9284    0.0000 C   0  0  0  0  0  0  0  0  0  0  0  0
   -3.9342   -8.3372    0.0000 C   0  0  0  0  0  0  0  0  0  0  0  0
   -3.9387   -9.1626    0.0000 N   0  0  0  0  0  0  0  0  0  0  0  0
   -3.2245   -9.5775    0.0000 C   0  0  0  0  0  0  0  0  0  0  0  0
   -2.5058   -9.1670    0.0000 C   0  0  0  0  0  0  0  0  0  0  0  0
   -4.6470   -7.9219    0.0000 O   0  0  0  0  0  0  0  0  0  0  0  0
   -4.6548   -9.5722    0.0000 C   0  0  0  0  0  0  0  0  0  0  0  0
   -5.3676   -9.1568    0.0000 C   0  0  0  0  0  0  0  0  0  0  0  0
   -3.2186   -7.1034    0.0000 O   0  0  0  0  0  0  0  0  0  0  0  0
    1.5815   -9.8549    0.0000 O   0  0  0  0  0  0  0  0  0  0  0  0
 17 18  1  0  0  0  0
 14 18  1  0  0  0  0
  7  9  1  0  0  0  0
 17 19  1  0  0  0  0
  4  5  2  0  0  0  0
 17 20  1  0  0  0  0
  9 10  2  0  0  0  0
 16 21  1  6  0  0  0
  2  3  2  0  0  0  0
  9 11  1  0  0  0  0
 21 22  1  0  0  0  0
 21 23  2  0  0  0  0
  5  6  1  0  0  0  0
 12 11  1  1  0  0  0
  8 24  1  0  0  0  0
  6  1  2  0  0  0  0
 24 25  1  0  0  0  0
 12 14  1  0  0  0  0
 24 26  2  0  0  0  0
 25 27  1  0  0  0  0
 15 13  1  0  0  0  0
 12 13  1  0  0  0  0
 14 15  1  1  0  0  0
  1  2  1  0  0  0  0
  7  3  1  0  0  0  0
 25 31  1  0  0  0  0
 27 28  1  0  0  0  0
 28 29  1  0  0  0  0
 29 30  1  0  0  0  0
 30 31  1  0  0  0  0
  3  4  1  0  0  0  0
 28 32  2  0  0  0  0
  7  8  1  6  0  0  0
 29 33  1  0  0  0  0
 33 34  1  0  0  0  0
 16 15  1  0  0  0  0
 27 35  2  0  0  0  0
 16 17  1  0  0  0  0
 13 36  2  0  0  0  0
M  END
> <From>
www.bindingDB.org

> <BindingDB Reactant_set_id>
50382889

> <Ligand InChI>
InChI=1S/C23H27N5O7S/c1-4-26-10-11-27(19(32)18(26)31)22(35)25-13(12-8-6-5-7-9-12)16(29)24-14-17(30)28-15(21(33)34)23(2,3)36-20(14)28/h5-9,13-15,20H,4,10-11H2,1-3H3,(H,24,29)(H,25,35)(H,33,34)/t13-,14-,15+,20-/m1/s1

> <Ligand InChI Key>
IVBHGBMCVLDMKU-GXNBUGAJSA-N

> <BindingDB MonomerID>
50240426

> <BindingDB Ligand Name>
(2S,5R,6R)-6-{[(2R)-2-{[(4-ethyl-2,3-dioxopiperazin-1-yl)carbonyl]amino}-2-phenylacetyl]amino}-3,3-dimethyl-7-oxo-4-thia-1-azabicyclo[3.2.0]heptane-2-carboxylic acid::6beta-{(2R)-2-[(4-ethyl-2,3-dioxopiperazin-1-yl)carboxamido]-2-phenylacetamido}-2,2-dimethylpenam-3alpha-carboxylic acid::CHEMBL702::Piperacillin::Piperacillin anhydrous

> <Target Name>
Beta-lactamase

> <Target Source Organism According to Curator or DataSource>
Citrobacter freundii

> <Ki (nM)>
 200

> <IC50 (nM)>


> <Kd (nM)>


> <EC50 (nM)>


> <kon (M-1-s-1)>


> <koff (s-1)>


> <pH>


> <Temp C>


> <Curation/DataSource>
ChEMBL

> <Article DOI>
10.1128/AAC.01395-06

> <BindingDB Entry DOI>
10.7270/Q24X57J4

> <PMID>
17438050

> <PubChem AID>


> <Patent Number>


> <Authors>
Power, P; Di Conza, J; Rodriguez, MM; Ghiglione, B; Ayala, JA; Casellas, JM; Radice, M; Gutkind, G

> <Institution>
Universidad de Buenos Aires

> <Link to Ligand in BindingDB>
http://www.bindingdb.org/bind/chemsearch/marvin/MolStructure.jsp?monomerid=50240426

> <Link to Ligand-Target Pair in BindingDB>
http://www.bindingdb.org/jsp/dbsearch/PrimarySearch_ki.jsp?energyterm=kJ/mole&tag=pol&polymerid=50003889&target=Beta-lactamase&column=ki&startPg=0&Increment=50&submit=Search

> <Link to Ligand-Target Pair in BindingDB>
http://www.bindingdb.org/jsp/dbsearch/PrimarySearch_ki.jsp?energyterm=kJ/mole&tag=r21&monomerid=50240426&enzyme=Beta-lactamase&column=ki&startPg=0&Increment=50&submit=Search

> <Ligand HET ID in PDB>
WPP

> <PDB ID(s) for Ligand-Target Complex>
3Q07

> <PubChem CID of Ligand>
43672

> <PubChem SID of Ligand>
104098277

> <ChEBI ID of Ligand>
8232

> <ChEMBL ID of Ligand>
CHEMBL702

> <DrugBank ID of Ligand>
DB00319

> <IUPHAR_GRAC ID of Ligand>


> <KEGG ID of Ligand>
C00395

> <ZINC ID of Ligand>
ZINC03913937

> <Number of Protein Chains in Target (bigger than 1 implies a multichain complex)>
1

> <BindingDB Target Chain Sequence>
MNVITKCVFTASALLMLGLSSFVVSAQSPLLKEQIETIVTGKKATVGVAVWGPDDLEPLLLNPFEKFPMQSVFKLHLAMLVLHQVDQGKLDLNQSVTVNRAAVLQNTWSPMMKDHQGDEFTVAVQQLLQYSVSHSDNVACDLLFELVGGPQALHAYIQSLGVKEAAVVANEAQMHADDQVQYQNWTSMKAAAQVLQKFEQKKQLSETSQALLWKWMVETTTGPQRLKGLLPAGTIVAHKTGTSGVRAGKTAATNDAGVIMLPDGRPLLVAVFVKDSAESERTNEAIIAQVAQAAYQFELKKLSAVSPD

> <PDB ID(s) of Target Chain>
4D2O,6D3G,6DGU

> <UniProt (SwissProt) Recommended Name of Target Chain>


> <UniProt (SwissProt) Entry Name of Target Chain>


> <UniProt (SwissProt) Primary ID of Target Chain>


> <UniProt (SwissProt) Secondary ID(s) of Target Chain>


> <UniProt (SwissProt) Alternative ID(s) of Target Chain>


> <UniProt (TrEMBL) Submitted Name of Target Chain>
Beta-lactamase

> <UniProt (TrEMBL) Entry Name of Target Chain>
A2RP81_CITFR

> <UniProt (TrEMBL) Primary ID of Target Chain>
A2RP81

> <UniProt (TrEMBL) Secondary ID(s) of Target Chain>


> <UniProt (TrEMBL) Alternative ID(s) of Target Chain>


$$$$

  Mrv0541 11231401522D          

 18 19  0  0  0  0            999 V2000
   -0.2208   -2.6417    0.0000 B   0  0  0  0  0  0  0  0  0  0  0  0
    5.5417   -2.6542    0.0000 B   0  0  0  0  0  0  0  0  0  0  0  0
    4.7167   -2.6542    0.0000 C   0  0  0  0  0  0  0  0  0  0  0  0
    0.6042   -2.6417    0.0000 C   0  0  0  0  0  0  0  0  0  0  0  0
    2.2417   -2.6500    0.0000 C   0  0  0  0  0  0  0  0  0  0  0  0
    3.0667   -2.6500    0.0000 C   0  0  0  0  0  0  0  0  0  0  0  0
    4.3042   -3.3667    0.0000 C   0  0  0  0  0  0  0  0  0  0  0  0
    1.0042   -3.3625    0.0000 C   0  0  0  0  0  0  0  0  0  0  0  0
    4.3042   -1.9375    0.0000 C   0  0  0  0  0  0  0  0  0  0  0  0
    1.0167   -1.9375    0.0000 C   0  0  0  0  0  0  0  0  0  0  0  0
    1.8375   -1.9375    0.0000 C   0  0  0  0  0  0  0  0  0  0  0  0
    3.4792   -3.3667    0.0000 C   0  0  0  0  0  0  0  0  0  0  0  0
    3.4792   -1.9375    0.0000 C   0  0  0  0  0  0  0  0  0  0  0  0
    1.8292   -3.3667    0.0000 C   0  0  0  0  0  0  0  0  0  0  0  0
   -0.8083   -3.2250    0.0000 O   0  0  0  0  0  0  0  0  0  0  0  0
   -0.6333   -1.9250    0.0000 O   0  0  0  0  0  0  0  0  0  0  0  0
    5.9542   -1.9375    0.0000 O   0  0  0  0  0  0  0  0  0  0  0  0
    5.9542   -3.3667    0.0000 O   0  0  0  0  0  0  0  0  0  0  0  0
  2  3  1  0  0  0  0
  3  9  2  0  0  0  0
  4  1  1  0  0  0  0
  5 11  1  0  0  0  0
  6  5  1  0  0  0  0
  7 12  2  0  0  0  0
  8  4  2  0  0  0  0
  9 13  1  0  0  0  0
 10  4  1  0  0  0  0
 11 10  2  0  0  0  0
 12  6  1  0  0  0  0
 13  6  2  0  0  0  0
 14  8  1  0  0  0  0
 15  1  1  0  0  0  0
 16  1  1  0  0  0  0
 17  2  1  0  0  0  0
 18  2  1  0  0  0  0
  5 14  2  0  0  0  0
  3  7  1  0  0  0  0
M  END
> <From>
www.bindingDB.org

> <BindingDB Reactant_set_id>
50209038

> <Ligand InChI>
InChI=1S/C12H12B2O4/c15-13(16)11-5-1-9(2-6-11)10-3-7-12(8-4-10)14(17)18/h1-8,15-18H

> <Ligand InChI Key>
SLHKDOGTVUCXKX-UHFFFAOYSA-N

> <BindingDB MonomerID>
50067910

> <BindingDB Ligand Name>
4,4'-Bis-dihydroxyboranyl-biphenyl::4,4'-biphenyldiboronic acid::CHEMBL109227::biphenyl-4,4'-diyldiboronic acid

> <Target Name>
Beta-lactamase

> <Target Source Organism According to Curator or DataSource>
Escherichia coli

> <Ki (nM)>
 200

> <IC50 (nM)>


> <Kd (nM)>


> <EC50 (nM)>


> <kon (M-1-s-1)>


> <koff (s-1)>


> <pH>


> <Temp C>


> <Curation/DataSource>
ChEMBL

> <Article DOI>
10.1021/jm020002p

> <BindingDB Entry DOI>
10.7270/Q2CN737M

> <PMID>
12109906

> <PubChem AID>


> <Patent Number>


> <Authors>
Powers, RA; Shoichet, BK

> <Institution>
Northwestern University

> <Link to Ligand in BindingDB>
http://www.bindingdb.org/bind/chemsearch/marvin/MolStructure.jsp?monomerid=50067910

> <Link to Ligand-Target Pair in BindingDB>
http://www.bindingdb.org/jsp/dbsearch/PrimarySearch_ki.jsp?energyterm=kJ/mole&tag=pol&polymerid=4401&target=Beta-lactamase&column=ki&startPg=0&Increment=50&submit=Search

> <Link to Ligand-Target Pair in BindingDB>
http://www.bindingdb.org/jsp/dbsearch/PrimarySearch_ki.jsp?energyterm=kJ/mole&tag=r21&monomerid=50067910&enzyme=Beta-lactamase&column=ki&startPg=0&Increment=50&submit=Search

> <Ligand HET ID in PDB>
BDB

> <PDB ID(s) for Ligand-Target Complex>
1KE3

> <PubChem CID of Ligand>
2734608

> <PubChem SID of Ligand>
103962336

> <ChEBI ID of Ligand>


> <ChEMBL ID of Ligand>
CHEMBL109227

> <DrugBank ID of Ligand>
DB02627

> <IUPHAR_GRAC ID of Ligand>


> <KEGG ID of Ligand>


> <ZINC ID of Ligand>


> <Number of Protein Chains in Target (bigger than 1 implies a multichain complex)>
1

> <BindingDB Target Chain Sequence>
MFKTTLCALLITASCSTFAAPQQINDIVHRTITPLIEQQKIPGMAVAVIYQGKPYYFTWGYADIAKKQPVTQQTLFELGSVSKTFTGVLGGDAIARGEIKLSDPTTKYWPELTAKQWNGITLLHLATYTAGGLPLQVPDEVKSSSDLLRFYQNWQPAWAPGTQRLYANSSIGLFGALAVKPSGLSFEQAMQTRVFQPLKLNHTWINVPPAEEKNYAWGYREGKAVHVSPGALDAEAYGVKSTIEDMARWVQSNLKPLDINEKTLQQGIQLAQSRYWQTGDMYQGLGWEMLDWPVNPDSIINGSDNKIALAARPVKAITPPTPAVRASWVHKTGATGGFGSYVAFIPEKELGIVMLANKNYPNPARVDAAWQILNALQ

> <PDB ID(s) of Target Chain>
1C3B,1FCO,1FSW,1FSY,1GA9,1IEL,1IEM,1KDS,1KDW,1KE0,1KE3,1KE4,1KVM,1L2S,1LL5,1LL9,1LLB,1MXO,1MY8,1XGI,1XGJ,2BLS,2HDQ,2HDR,2HDS,2HDU,2I72,2P9V,2PU2,2PU4,2R9W,2R9X,2RCX,3BLS,3BM6,3GQZ,3GR2,3GRJ,3GSG,3GTC,3GV9,3GVB,3O86,3O87,3O88,4E3I,4E3J,4E3K,4E3L,4E3M,4E3N,4E3O,4JXG,4JXS,4JXV,4JXW,4KG2,4KZ3,4KZ4,4KZ5,4KZ6,4KZ7,4KZ8,4KZ9,4KZA,4KZB,4LV0,4LV1,4LV2,4LV3,4OKP,4OLD,4OLG,6DPT,6DPX,6DPY,6DPZ,6T35,6T3D,6T5Y,6T7L,6TBW,6TPM,6WGQ,6YEN,6YEO,6YPD

> <UniProt (SwissProt) Recommended Name of Target Chain>
Beta-lactamase

> <UniProt (SwissProt) Entry Name of Target Chain>
AMPC_ECOLI

> <UniProt (SwissProt) Primary ID of Target Chain>
P00811

> <UniProt (SwissProt) Secondary ID(s) of Target Chain>
Q2M6F2

> <UniProt (SwissProt) Alternative ID(s) of Target Chain>


> <UniProt (TrEMBL) Submitted Name of Target Chain>


> <UniProt (TrEMBL) Entry Name of Target Chain>


> <UniProt (TrEMBL) Primary ID of Target Chain>


> <UniProt (TrEMBL) Secondary ID(s) of Target Chain>


> <UniProt (TrEMBL) Alternative ID(s) of Target Chain>


$$$$

  Mrv0541 11191401012D          

 32 34  0  0  0  0            999 V2000
   -0.7396    1.4778    0.0000 C   0  0  0  0  0  0  0  0  0  0  0  0
   -1.5646    1.4778    0.0000 C   0  0  0  0  0  0  0  0  0  0  0  0
   -1.9771    2.1922    0.0000 C   0  0  0  0  0  0  0  0  0  0  0  0
   -1.5646    2.9067    0.0000 C   0  0  0  0  0  0  0  0  0  0  0  0
   -0.7396    2.9067    0.0000 C   0  0  0  0  0  0  0  0  0  0  0  0
   -0.3271    2.1922    0.0000 C   0  0  0  0  0  0  0  0  0  0  0  0
   -1.9771    3.6212    0.0000 B   0  0  0  0  0  0  0  0  0  0  0  0
   -2.8021    3.6212    0.0000 O   0  0  0  0  0  0  0  0  0  0  0  0
   -1.5646    4.3356    0.0000 O   0  0  0  0  0  0  0  0  0  0  0  0
    0.4979    2.1922    0.0000 N   0  0  0  0  0  0  0  0  0  0  0  0
    0.9104    1.4778    0.0000 S   0  0  0  0  0  0  0  0  0  0  0  0
    0.4979    0.7633    0.0000 O   0  0  0  0  0  0  0  0  0  0  0  0
    1.7354    1.4778    0.0000 C   0  0  0  0  0  0  0  0  0  0  0  0
    1.3229    2.1923    0.0000 O   0  0  0  0  0  0  0  0  0  0  0  0
    2.9729    2.1923    0.0000 C   0  0  0  0  0  0  0  0  0  0  0  0
    2.1479    2.1923    0.0000 C   0  0  0  0  0  0  0  0  0  0  0  0
    2.1479    0.7633    0.0000 C   0  0  0  0  0  0  0  0  0  0  0  0
    2.9729    0.7634    0.0000 C   0  0  0  0  0  0  0  0  0  0  0  0
    3.3854    1.4778    0.0000 C   0  0  0  0  0  0  0  0  0  0  0  0
    3.3854    2.9068    0.0000 Cl  0  0  0  0  0  0  0  0  0  0  0  0
    4.2104    1.4778    0.0000 O   0  0  0  0  0  0  0  0  0  0  0  0
    3.3854    0.0489    0.0000 Cl  0  0  0  0  0  0  0  0  0  0  0  0
    4.6229    2.1923    0.0000 C   0  0  0  0  0  0  0  0  0  0  0  0
    4.6229    3.6213    0.0000 C   0  0  0  0  0  0  0  0  0  0  0  0
    4.2104    2.9068    0.0000 C   0  0  0  0  0  0  0  0  0  0  0  0
    5.4479    2.1923    0.0000 C   0  0  0  0  0  0  0  0  0  0  0  0
    5.8604    2.9068    0.0000 C   0  0  0  0  0  0  0  0  0  0  0  0
    5.4479    3.6213    0.0000 C   0  0  0  0  0  0  0  0  0  0  0  0
    5.8604    1.4778    0.0000 Cl  0  0  0  0  0  0  0  0  0  0  0  0
    5.8604    4.3357    0.0000 N   0  0  0  0  0  0  0  0  0  0  0  0
    5.4479    5.0502    0.0000 O   0  0  0  0  0  0  0  0  0  0  0  0
    6.6854    4.3357    0.0000 O   0  0  0  0  0  0  0  0  0  0  0  0
  1  2  2  0  0  0  0
  2  3  1  0  0  0  0
  3  4  2  0  0  0  0
  4  5  1  0  0  0  0
  5  6  2  0  0  0  0
  1  6  1  0  0  0  0
  4  7  1  0  0  0  0
  7  8  1  0  0  0  0
  7  9  1  0  0  0  0
  6 10  1  0  0  0  0
 10 11  1  0  0  0  0
 11 12  2  0  0  0  0
 11 13  1  0  0  0  0
 11 14  2  0  0  0  0
 16 13  2  0  0  0  0
 13 17  1  0  0  0  0
 15 16  1  0  0  0  0
 17 18  2  0  0  0  0
 18 19  1  0  0  0  0
 15 19  2  0  0  0  0
 15 20  1  0  0  0  0
 19 21  1  0  0  0  0
 18 22  1  0  0  0  0
 21 23  1  0  0  0  0
 25 23  2  0  0  0  0
 23 26  1  0  0  0  0
 24 25  1  0  0  0  0
 26 27  2  0  0  0  0
 27 28  1  0  0  0  0
 24 28  2  0  0  0  0
 26 29  1  0  0  0  0
 28 30  1  0  0  0  0
 30 31  2  0  0  0  0
 30 32  2  0  0  0  0
M  END
> <From>
www.bindingDB.org

> <BindingDB Reactant_set_id>
74836

> <Ligand InChI>
InChI=1S/C18H12BCl3N2O7S/c20-14-7-12(24(27)28)4-5-17(14)31-18-15(21)8-13(9-16(18)22)32(29,30)23-11-3-1-2-10(6-11)19(25)26/h1-9,23,25-26H

> <Ligand InChI Key>
RPKNZBGVJUFYHA-UHFFFAOYSA-N

> <BindingDB MonomerID>
39850

> <BindingDB Ligand Name>
Amide and sulfonamide derivatives, 34

> <Target Name>
Beta-lactamase

> <Target Source Organism According to Curator or DataSource>
Escherichia coli

> <Ki (nM)>
 2.0e+2

> <IC50 (nM)>


> <Kd (nM)>


> <EC50 (nM)>


> <kon (M-1-s-1)>


> <koff (s-1)>


> <pH>
7

> <Temp C>


> <Curation/DataSource>
Curated from the literature by BindingDB

> <Article DOI>
10.1016/S1074-5521(01)00034-5

> <BindingDB Entry DOI>
10.7270/Q27M06BZ

> <PMID>
11410378

> <PubChem AID>
aid1799472

> <Patent Number>


> <Authors>
Tondi, D; Powers, RA; Caselli, E; Negri, MC; Bl&aacute;zquez, J; Costi, MP; Shoichet, BK

> <Institution>
Northwestern University

> <Link to Ligand in BindingDB>
http://www.bindingdb.org/bind/chemsearch/marvin/MolStructure.jsp?monomerid=39850

> <Link to Ligand-Target Pair in BindingDB>
http://www.bindingdb.org/jsp/dbsearch/PrimarySearch_ki.jsp?energyterm=kJ/mole&tag=pol&polymerid=4401&target=Beta-lactamase&column=ki&startPg=0&Increment=50&submit=Search

> <Link to Ligand-Target Pair in BindingDB>
http://www.bindingdb.org/jsp/dbsearch/PrimarySearch_ki.jsp?energyterm=kJ/mole&tag=r21&monomerid=39850&enzyme=Beta-lactamase&column=ki&startPg=0&Increment=50&submit=Search

> <Ligand HET ID in PDB>


> <PDB ID(s) for Ligand-Target Complex>


> <PubChem CID of Ligand>
52940006

> <PubChem SID of Ligand>
123080158

> <ChEBI ID of Ligand>


> <ChEMBL ID of Ligand>


> <DrugBank ID of Ligand>


> <IUPHAR_GRAC ID of Ligand>


> <KEGG ID of Ligand>
C06058

> <ZINC ID of Ligand>


> <Number of Protein Chains in Target (bigger than 1 implies a multichain complex)>
1

> <BindingDB Target Chain Sequence>
MFKTTLCALLITASCSTFAAPQQINDIVHRTITPLIEQQKIPGMAVAVIYQGKPYYFTWGYADIAKKQPVTQQTLFELGSVSKTFTGVLGGDAIARGEIKLSDPTTKYWPELTAKQWNGITLLHLATYTAGGLPLQVPDEVKSSSDLLRFYQNWQPAWAPGTQRLYANSSIGLFGALAVKPSGLSFEQAMQTRVFQPLKLNHTWINVPPAEEKNYAWGYREGKAVHVSPGALDAEAYGVKSTIEDMARWVQSNLKPLDINEKTLQQGIQLAQSRYWQTGDMYQGLGWEMLDWPVNPDSIINGSDNKIALAARPVKAITPPTPAVRASWVHKTGATGGFGSYVAFIPEKELGIVMLANKNYPNPARVDAAWQILNALQ

> <PDB ID(s) of Target Chain>
1C3B,1FCO,1FSW,1FSY,1GA9,1IEL,1IEM,1KDS,1KDW,1KE0,1KE3,1KE4,1KVM,1L2S,1LL5,1LL9,1LLB,1MXO,1MY8,1XGI,1XGJ,2BLS,2HDQ,2HDR,2HDS,2HDU,2I72,2P9V,2PU2,2PU4,2R9W,2R9X,2RCX,3BLS,3BM6,3GQZ,3GR2,3GRJ,3GSG,3GTC,3GV9,3GVB,3O86,3O87,3O88,4E3I,4E3J,4E3K,4E3L,4E3M,4E3N,4E3O,4JXG,4JXS,4JXV,4JXW,4KG2,4KZ3,4KZ4,4KZ5,4KZ6,4KZ7,4KZ8,4KZ9,4KZA,4KZB,4LV0,4LV1,4LV2,4LV3,4OKP,4OLD,4OLG,6DPT,6DPX,6DPY,6DPZ,6T35,6T3D,6T5Y,6T7L,6TBW,6TPM,6WGQ,6YEN,6YEO,6YPD

> <UniProt (SwissProt) Recommended Name of Target Chain>
Beta-lactamase

> <UniProt (SwissProt) Entry Name of Target Chain>
AMPC_ECOLI

> <UniProt (SwissProt) Primary ID of Target Chain>
P00811

> <UniProt (SwissProt) Secondary ID(s) of Target Chain>
Q2M6F2

> <UniProt (SwissProt) Alternative ID(s) of Target Chain>


> <UniProt (TrEMBL) Submitted Name of Target Chain>


> <UniProt (TrEMBL) Entry Name of Target Chain>


> <UniProt (TrEMBL) Primary ID of Target Chain>


> <UniProt (TrEMBL) Secondary ID(s) of Target Chain>


> <UniProt (TrEMBL) Alternative ID(s) of Target Chain>


$$$$
 
  Mrv0541 11231401202D          

 20 22  0  0  0  0            999 V2000
   -0.2155  -25.4931    0.0000 C   0  0  0  0  0  0  0  0  0  0  0  0
   -0.2155  -26.3181    0.0000 C   0  0  0  0  0  0  0  0  0  0  0  0
    0.6095  -25.4931    0.0000 C   0  0  2  0  0  0  0  0  0  0  0  0
    0.6140  -26.3180    0.0000 N   0  0  0  0  0  0  0  0  0  0  0  0
    1.4001  -26.5687    0.0000 C   0  0  2  0  0  0  0  0  0  0  0  0
    1.8814  -25.8985    0.0000 C   0  0  2  0  0  0  0  0  0  0  0  0
    1.3927  -25.2339    0.0000 S   0  0  0  0  0  0  0  0  0  0  0  0
   -0.7988  -26.9014    0.0000 O   0  0  0  0  0  0  0  0  0  0  0  0
    2.1817  -25.0164    0.0000 O   0  0  0  0  0  0  0  0  0  0  0  0
    0.9717  -24.5168    0.0000 O   0  0  0  0  0  0  0  0  0  0  0  0
    1.6593  -27.3520    0.0000 C   0  0  0  0  0  0  0  0  0  0  0  0
    1.1106  -27.9680    0.0000 O   0  0  0  0  0  0  0  0  0  0  0  0
    2.4672  -27.5191    0.0000 O   0  0  0  0  0  0  0  0  0  0  0  0
    2.5897  -25.4793    0.0000 C   0  0  0  0  0  0  0  0  0  0  0  0
    2.5897  -26.3089    0.0000 C   0  0  0  0  0  0  0  0  0  0  0  0
    3.3001  -25.8918    0.0000 N   0  0  0  0  0  0  0  0  0  0  0  0
    4.0569  -26.2172    0.0000 N   0  0  0  0  0  0  0  0  0  0  0  0
    4.6036  -25.6010    0.0000 N   0  0  0  0  0  0  0  0  0  0  0  0
    4.1865  -24.8905    0.0000 C   0  0  0  0  0  0  0  0  0  0  0  0
    3.3820  -25.0678    0.0000 C   0  0  0  0  0  0  0  0  0  0  0  0
  7 10  2  0  0  0  0
  3  1  1  0  0  0  0
  5 11  1  6  0  0  0
  3  4  1  1  0  0  0
 11 12  1  0  0  0  0
  5  4  1  0  0  0  0
 11 13  2  0  0  0  0
  5  6  1  0  0  0  0
  6 14  1  6  0  0  0
  6  7  1  0  0  0  0
  6 15  1  1  0  0  0
  3  7  1  0  0  0  0
 15 16  1  0  0  0  0
 16 17  1  0  0  0  0
  2  8  2  0  0  0  0
  1  2  1  0  0  0  0
  7  9  2  0  0  0  0
 17 18  2  0  0  0  0
 18 19  1  0  0  0  0
 19 20  2  0  0  0  0
 20 16  1  0  0  0  0
  2  4  1  0  0  0  0
M  END
> <From>
www.bindingDB.org

> <BindingDB Reactant_set_id>
293326

> <Ligand InChI>
InChI=1S/C10H12N4O5S/c1-10(5-13-3-2-11-12-13)8(9(16)17)14-6(15)4-7(14)20(10,18)19/h2-3,7-8H,4-5H2,1H3,(H,16,17)/t7-,8+,10+/m1/s1

> <Ligand InChI Key>
LPQZKKCYTLCDGQ-WEDXCCLWSA-N

> <BindingDB MonomerID>
50053173

> <BindingDB Ligand Name>
(2S,3S,5R)-3-Methyl-4,4,7-trioxo-3-[1,2,3]triazol-1-ylmethyl-4-thia-1-aza-bicyclo[3.2.0]heptane-2-carboxylic acid::(2S,3S,5R)-3-Methyl-4,4,7-trioxo-3-[1,2,3]triazol-1-ylmethyl-4lambda 6-thia-1-aza-bicyclo[3.2.0]heptane-2-carboxylic acid::(2S,3S,5R)-3-methyl-4,4,7-trioxo-3-[1,2,3]triazol-1-ylmethyl-4lambda6-thia-1-aza-bicyclo[3.2.0]heptane-2-carboxylic acid::(2S,3S,5R)-3-methyl-7-oxo-3-(1H-1,2,3-triazol-1-ylmethyl)-4-thia-1-azabicyclo[3.2.0]heptane-2-carboxylic acid 4,4-dioxide::3-Methyl-4,4,7-trioxo-3-[1,2,3]triazol-1-ylmethyl-4lambda*6*-thia-1-aza-bicyclo[3.2.0]heptane-2-carboxylic acid::CHEMBL404::CL-298741::TAZOBACTAM::US9120808, Tazobactam sodium salt::US9676777, TAZ::YTR-830H::Zosyn

> <Target Name>
Beta-lactamase SHV-1

> <Target Source Organism According to Curator or DataSource>


> <Ki (nM)>
 2.2e+2

> <IC50 (nM)>
 30

> <Kd (nM)>


> <EC50 (nM)>


> <kon (M-1-s-1)>


> <koff (s-1)>


> <pH>
7.4

> <Temp C>


> <Curation/DataSource>
Curated from the literature by BindingDB

> <Article DOI>
10.1021/bi501197t

> <BindingDB Entry DOI>
10.7270/Q2736PNW

> <PMID>
25536850

> <PubChem AID>
aid1801066

> <Patent Number>


> <Authors>
Che, T; Rodkey, EA; Bethel, CR; Shanmugam, S; Ding, Z; Pusztai-Carey, M; Nottingham, M; Chai, W; Buynak, JD; Bonomo, RA; van den Akker, F; Carey, PR

> <Institution>
Case Western Reserve University

> <Link to Ligand in BindingDB>
http://www.bindingdb.org/bind/chemsearch/marvin/MolStructure.jsp?monomerid=50053173

> <Link to Ligand-Target Pair in BindingDB>
http://www.bindingdb.org/jsp/dbsearch/PrimarySearch_ki.jsp?energyterm=kJ/mole&tag=pol&polymerid=6997&target=Beta-lactamase+SHV-1&column=ki&startPg=0&Increment=50&submit=Search

> <Link to Ligand-Target Pair in BindingDB>
http://www.bindingdb.org/jsp/dbsearch/PrimarySearch_ki.jsp?energyterm=kJ/mole&tag=r21&monomerid=50053173&enzyme=Beta-lactamase+SHV-1&column=ki&startPg=0&Increment=50&submit=Search

> <Ligand HET ID in PDB>
TAZ

> <PDB ID(s) for Ligand-Target Complex>
1VM1

> <PubChem CID of Ligand>
123630

> <PubChem SID of Ligand>
103949887

> <ChEBI ID of Ligand>
9421

> <ChEMBL ID of Ligand>
CHEMBL404

> <DrugBank ID of Ligand>
DB01606

> <IUPHAR_GRAC ID of Ligand>


> <KEGG ID of Ligand>
C07771

> <ZINC ID of Ligand>
ZINC03787060

> <Number of Protein Chains in Target (bigger than 1 implies a multichain complex)>
1

> <BindingDB Target Chain Sequence>
MRYIRLCIISLLATLPLAVHASPQPLEQIKLSESQLSGRVGMIEMDLASGRTLTAWRADERFPMMSTFKV
VLCGAVLARVDAGDEQLERKIHYRQQDLVDYSPVSEKHLADGMTVGELCAAAITMSDNSAANLLLATVGG
PAGLTAFLRQIGDNVTRLDRWETELNEALPGDARDTTTPASMAATLRKLLTSQRLSARSQRQLLQWMVDD
RVAGPLIRSVLPAGWFIADKTGAGERGARGIVALLGPNNKAERIVVIYLRDTPASMAERNQQIAGIGAAL
IEHWQR

> <PDB ID(s) of Target Chain>
1ONG,1Q2P,1SHV,1VM1,2G2U,2H5S,2ZD8,3C4O,3C4P,3D4F,3MKE,3MKF,3MXR,3MXS,4FH4,4GD6,4GD8,4GDB,4JPM,4MBF,4R3B,4ZAM,5EE8

> <UniProt (SwissProt) Recommended Name of Target Chain>
Beta-lactamase SHV-1

> <UniProt (SwissProt) Entry Name of Target Chain>
BLA1_KLEPN

> <UniProt (SwissProt) Primary ID of Target Chain>
P0AD64

> <UniProt (SwissProt) Secondary ID(s) of Target Chain>
O07941 P14557 P23982

> <UniProt (SwissProt) Alternative ID(s) of Target Chain>


> <UniProt (TrEMBL) Submitted Name of Target Chain>


> <UniProt (TrEMBL) Entry Name of Target Chain>


> <UniProt (TrEMBL) Primary ID of Target Chain>


> <UniProt (TrEMBL) Secondary ID(s) of Target Chain>


> <UniProt (TrEMBL) Alternative ID(s) of Target Chain>


$$$$
19
  Mrv0541 11181423542D          

 12 13  0  0  0  0            999 V2000
   -1.7187    2.0750    0.0000 C   0  0  0  0  0  0  0  0  0  0  0  0
   -2.4332    1.6625    0.0000 C   0  0  0  0  0  0  0  0  0  0  0  0
   -2.4332    0.8375    0.0000 C   0  0  0  0  0  0  0  0  0  0  0  0
   -1.7187    0.4250    0.0000 C   0  0  0  0  0  0  0  0  0  0  0  0
   -1.0043    1.6625    0.0000 C   0  0  0  0  0  0  0  0  0  0  0  0
   -1.0043    0.8375    0.0000 C   0  0  0  0  0  0  0  0  0  0  0  0
   -0.2197    1.9175    0.0000 C   0  0  0  0  0  0  0  0  0  0  0  0
    0.2652    1.2500    0.0000 C   0  0  0  0  0  0  0  0  0  0  0  0
    1.0902    1.2500    0.0000 B   0  0  0  0  0  0  0  0  0  0  0  0
    1.6736    1.8334    0.0000 O   0  0  0  0  0  0  0  0  0  0  0  0
    1.5027    0.5355    0.0000 O   0  0  0  0  0  0  0  0  0  0  0  0
   -0.2197    0.5826    0.0000 O   0  0  0  0  0  0  0  0  0  0  0  0
  1  2  1  0  0  0  0
  1  5  2  0  0  0  0
  2  3  2  0  0  0  0
  3  4  1  0  0  0  0
  4  6  2  0  0  0  0
  7  5  1  0  0  0  0
  5  6  1  0  0  0  0
  6 12  1  0  0  0  0
  7  8  2  0  0  0  0
 12  8  1  0  0  0  0
  8  9  1  0  0  0  0
  9 11  1  0  0  0  0
  9 10  1  0  0  0  0
M  END
> <From>
www.bindingDB.org

> <BindingDB Reactant_set_id>
50054799

> <Ligand InChI>
InChI=1S/C8H7BO3/c10-9(11)8-5-6-3-1-2-4-7(6)12-8/h1-5,10-11H

> <Ligand InChI Key>
PKRRNTJIHGOMRC-UHFFFAOYSA-N

> <BindingDB MonomerID>
26140

> <BindingDB Ligand Name>
1-benzofuran-2-ylboranediol::1-benzofuran-2-ylboronic acid, 19::CHEMBL143399::Phenylboronic acid, 21

> <Target Name>
Beta-lactamase

> <Target Source Organism According to Curator or DataSource>
Escherichia coli

> <Ki (nM)>
 220

> <IC50 (nM)>


> <Kd (nM)>


> <EC50 (nM)>


> <kon (M-1-s-1)>


> <koff (s-1)>


> <pH>


> <Temp C>


> <Curation/DataSource>
ChEMBL

> <Article DOI>
10.1021/jm980343w

> <BindingDB Entry DOI>
10.7270/Q22N51FX

> <PMID>
9804697

> <PubChem AID>


> <Patent Number>


> <Authors>
Weston, GS; Blazquez, J; Baquero, F; Shoichet, BK

> <Institution>
Northwestern University Medical School

> <Link to Ligand in BindingDB>
http://www.bindingdb.org/bind/chemsearch/marvin/MolStructure.jsp?monomerid=26140

> <Link to Ligand-Target Pair in BindingDB>
http://www.bindingdb.org/jsp/dbsearch/PrimarySearch_ki.jsp?energyterm=kJ/mole&tag=pol&polymerid=4401&target=Beta-lactamase&column=ki&startPg=0&Increment=50&submit=Search

> <Link to Ligand-Target Pair in BindingDB>
http://www.bindingdb.org/jsp/dbsearch/PrimarySearch_ki.jsp?energyterm=kJ/mole&tag=r21&monomerid=26140&enzyme=Beta-lactamase&column=ki&startPg=0&Increment=50&submit=Search

> <Ligand HET ID in PDB>


> <PDB ID(s) for Ligand-Target Complex>


> <PubChem CID of Ligand>
2776266

> <PubChem SID of Ligand>
56464577

> <ChEBI ID of Ligand>


> <ChEMBL ID of Ligand>
CHEMBL143399

> <DrugBank ID of Ligand>


> <IUPHAR_GRAC ID of Ligand>


> <KEGG ID of Ligand>


> <ZINC ID of Ligand>


> <Number of Protein Chains in Target (bigger than 1 implies a multichain complex)>
1

> <BindingDB Target Chain Sequence>
MFKTTLCALLITASCSTFAAPQQINDIVHRTITPLIEQQKIPGMAVAVIYQGKPYYFTWGYADIAKKQPVTQQTLFELGSVSKTFTGVLGGDAIARGEIKLSDPTTKYWPELTAKQWNGITLLHLATYTAGGLPLQVPDEVKSSSDLLRFYQNWQPAWAPGTQRLYANSSIGLFGALAVKPSGLSFEQAMQTRVFQPLKLNHTWINVPPAEEKNYAWGYREGKAVHVSPGALDAEAYGVKSTIEDMARWVQSNLKPLDINEKTLQQGIQLAQSRYWQTGDMYQGLGWEMLDWPVNPDSIINGSDNKIALAARPVKAITPPTPAVRASWVHKTGATGGFGSYVAFIPEKELGIVMLANKNYPNPARVDAAWQILNALQ

> <PDB ID(s) of Target Chain>
1C3B,1FCO,1FSW,1FSY,1GA9,1IEL,1IEM,1KDS,1KDW,1KE0,1KE3,1KE4,1KVM,1L2S,1LL5,1LL9,1LLB,1MXO,1MY8,1XGI,1XGJ,2BLS,2HDQ,2HDR,2HDS,2HDU,2I72,2P9V,2PU2,2PU4,2R9W,2R9X,2RCX,3BLS,3BM6,3GQZ,3GR2,3GRJ,3GSG,3GTC,3GV9,3GVB,3O86,3O87,3O88,4E3I,4E3J,4E3K,4E3L,4E3M,4E3N,4E3O,4JXG,4JXS,4JXV,4JXW,4KG2,4KZ3,4KZ4,4KZ5,4KZ6,4KZ7,4KZ8,4KZ9,4KZA,4KZB,4LV0,4LV1,4LV2,4LV3,4OKP,4OLD,4OLG,6DPT,6DPX,6DPY,6DPZ,6T35,6T3D,6T5Y,6T7L,6TBW,6TPM,6WGQ,6YEN,6YEO,6YPD

> <UniProt (SwissProt) Recommended Name of Target Chain>
Beta-lactamase

> <UniProt (SwissProt) Entry Name of Target Chain>
AMPC_ECOLI

> <UniProt (SwissProt) Primary ID of Target Chain>
P00811

> <UniProt (SwissProt) Secondary ID(s) of Target Chain>
Q2M6F2

> <UniProt (SwissProt) Alternative ID(s) of Target Chain>


> <UniProt (TrEMBL) Submitted Name of Target Chain>


> <UniProt (TrEMBL) Entry Name of Target Chain>


> <UniProt (TrEMBL) Primary ID of Target Chain>


> <UniProt (TrEMBL) Secondary ID(s) of Target Chain>


> <UniProt (TrEMBL) Alternative ID(s) of Target Chain>


$$$$

  Mrv0541 11191401012D          

  9  8  0  0  0  0            999 V2000
   -2.0920    2.6813    0.0000 C   0  0  0  0  0  0  0  0  0  0  0  0
   -1.3775    3.0938    0.0000 C   0  0  0  0  0  0  0  0  0  0  0  0
   -0.6630    2.6813    0.0000 N   0  0  0  0  0  0  0  0  0  0  0  0
   -1.3775    3.9188    0.0000 O   0  0  0  0  0  0  0  0  0  0  0  0
    0.0514    3.0938    0.0000 C   0  0  0  0  0  0  0  0  0  0  0  0
    0.7659    2.6813    0.0000 B   0  0  0  0  0  0  0  0  0  0  0  0
    1.4804    3.0938    0.0000 O   0  0  0  0  0  0  0  0  0  0  0  0
    0.7659    1.8563    0.0000 O   0  0  0  0  0  0  0  0  0  0  0  0
   -2.8064    3.0938    0.0000 Cl  0  0  0  0  0  0  0  0  0  0  0  0
  1  2  1  0  0  0  0
  2  3  1  0  0  0  0
  2  4  2  0  0  0  0
  3  5  1  0  0  0  0
  5  6  1  0  0  0  0
  6  7  1  0  0  0  0
  6  8  1  0  0  0  0
  1  9  1  0  0  0  0
M  END
> <From>
www.bindingDB.org

> <BindingDB Reactant_set_id>
74789

> <Ligand InChI>
InChI=1S/C3H7BClNO3/c5-1-3(7)6-2-4(8)9/h8-9H,1-2H2,(H,6,7)

> <Ligand InChI Key>
BLGBFTVMRZPQPQ-UHFFFAOYSA-N

> <BindingDB MonomerID>
39813

> <BindingDB Ligand Name>
Acylglycineboronic acid, 12

> <Target Name>
Beta-lactamase

> <Target Source Organism According to Curator or DataSource>
Escherichia coli

> <Ki (nM)>
 2.4e+2

> <IC50 (nM)>


> <Kd (nM)>


> <EC50 (nM)>


> <kon (M-1-s-1)>


> <koff (s-1)>


> <pH>
7

> <Temp C>


> <Curation/DataSource>
Curated from the literature by BindingDB

> <Article DOI>
10.1016/S1074-5521(00)00052-1

> <BindingDB Entry DOI>
10.7270/Q2CC0Z3R

> <PMID>
11182316

> <PubChem AID>
aid1799471

> <Patent Number>


> <Authors>
Caselli, E; Powers, RA; Blasczcak, LC; Wu, CY; Prati, F; Shoichet, BK

> <Institution>
Northwestern University

> <Link to Ligand in BindingDB>
http://www.bindingdb.org/bind/chemsearch/marvin/MolStructure.jsp?monomerid=39813

> <Link to Ligand-Target Pair in BindingDB>
http://www.bindingdb.org/jsp/dbsearch/PrimarySearch_ki.jsp?energyterm=kJ/mole&tag=pol&polymerid=4401&target=Beta-lactamase&column=ki&startPg=0&Increment=50&submit=Search

> <Link to Ligand-Target Pair in BindingDB>
http://www.bindingdb.org/jsp/dbsearch/PrimarySearch_ki.jsp?energyterm=kJ/mole&tag=r21&monomerid=39813&enzyme=Beta-lactamase&column=ki&startPg=0&Increment=50&submit=Search

> <Ligand HET ID in PDB>


> <PDB ID(s) for Ligand-Target Complex>


> <PubChem CID of Ligand>
9964148

> <PubChem SID of Ligand>
123080121

> <ChEBI ID of Ligand>


> <ChEMBL ID of Ligand>


> <DrugBank ID of Ligand>


> <IUPHAR_GRAC ID of Ligand>


> <KEGG ID of Ligand>


> <ZINC ID of Ligand>


> <Number of Protein Chains in Target (bigger than 1 implies a multichain complex)>
1

> <BindingDB Target Chain Sequence>
MFKTTLCALLITASCSTFAAPQQINDIVHRTITPLIEQQKIPGMAVAVIYQGKPYYFTWGYADIAKKQPVTQQTLFELGSVSKTFTGVLGGDAIARGEIKLSDPTTKYWPELTAKQWNGITLLHLATYTAGGLPLQVPDEVKSSSDLLRFYQNWQPAWAPGTQRLYANSSIGLFGALAVKPSGLSFEQAMQTRVFQPLKLNHTWINVPPAEEKNYAWGYREGKAVHVSPGALDAEAYGVKSTIEDMARWVQSNLKPLDINEKTLQQGIQLAQSRYWQTGDMYQGLGWEMLDWPVNPDSIINGSDNKIALAARPVKAITPPTPAVRASWVHKTGATGGFGSYVAFIPEKELGIVMLANKNYPNPARVDAAWQILNALQ

> <PDB ID(s) of Target Chain>
1C3B,1FCO,1FSW,1FSY,1GA9,1IEL,1IEM,1KDS,1KDW,1KE0,1KE3,1KE4,1KVM,1L2S,1LL5,1LL9,1LLB,1MXO,1MY8,1XGI,1XGJ,2BLS,2HDQ,2HDR,2HDS,2HDU,2I72,2P9V,2PU2,2PU4,2R9W,2R9X,2RCX,3BLS,3BM6,3GQZ,3GR2,3GRJ,3GSG,3GTC,3GV9,3GVB,3O86,3O87,3O88,4E3I,4E3J,4E3K,4E3L,4E3M,4E3N,4E3O,4JXG,4JXS,4JXV,4JXW,4KG2,4KZ3,4KZ4,4KZ5,4KZ6,4KZ7,4KZ8,4KZ9,4KZA,4KZB,4LV0,4LV1,4LV2,4LV3,4OKP,4OLD,4OLG,6DPT,6DPX,6DPY,6DPZ,6T35,6T3D,6T5Y,6T7L,6TBW,6TPM,6WGQ,6YEN,6YEO,6YPD

> <UniProt (SwissProt) Recommended Name of Target Chain>
Beta-lactamase

> <UniProt (SwissProt) Entry Name of Target Chain>
AMPC_ECOLI

> <UniProt (SwissProt) Primary ID of Target Chain>
P00811

> <UniProt (SwissProt) Secondary ID(s) of Target Chain>
Q2M6F2

> <UniProt (SwissProt) Alternative ID(s) of Target Chain>


> <UniProt (TrEMBL) Submitted Name of Target Chain>


> <UniProt (TrEMBL) Entry Name of Target Chain>


> <UniProt (TrEMBL) Primary ID of Target Chain>


> <UniProt (TrEMBL) Secondary ID(s) of Target Chain>


> <UniProt (TrEMBL) Alternative ID(s) of Target Chain>


$$$$

  Mrv0541 11221409162D          

 23 25  0  0  0  0            999 V2000
    9.1274    0.5908    0.0000 C   0  0  0  0  0  0  0  0  0  0  0  0
    9.1263   -0.2312    0.0000 C   0  0  0  0  0  0  0  0  0  0  0  0
    9.8443   -0.6434    0.0000 C   0  0  0  0  0  0  0  0  0  0  0  0
    9.8425    1.0031    0.0000 C   0  0  0  0  0  0  0  0  0  0  0  0
   10.5527    0.5944    0.0000 C   0  0  0  0  0  0  0  0  0  0  0  0
   10.5529   -0.2312    0.0000 C   0  0  0  0  0  0  0  0  0  0  0  0
   11.3381   -0.4833    0.0000 S   0  0  0  0  0  0  0  0  0  0  0  0
   11.8174    0.1757    0.0000 C   0  0  0  0  0  0  0  0  0  0  0  0
   11.3377    0.8470    0.0000 C   0  0  0  0  0  0  0  0  0  0  0  0
   12.6412    0.1719    0.0000 B   0  0  0  0  0  0  0  0  0  0  0  0
   13.0535   -0.5372    0.0000 O   0  0  0  0  0  0  0  0  0  0  0  0
   13.0530    0.8897    0.0000 O   0  0  0  0  0  0  0  0  0  0  0  0
    8.4055    1.0068    0.0000 C   0  0  0  0  0  0  0  0  0  0  0  0
    7.6938    0.5906    0.0000 N   0  0  0  0  0  0  0  0  0  0  0  0
    6.9761    0.9983    0.0000 C   0  0  0  0  0  0  0  0  0  0  0  0
    6.9729    1.8219    0.0000 C   0  0  0  0  0  0  0  0  0  0  0  0
    6.2603    2.2342    0.0000 C   0  0  0  0  0  0  0  0  0  0  0  0
    5.5333    1.8099    0.0000 C   0  0  0  0  0  0  0  0  0  0  0  0
    5.5403    0.9860    0.0000 C   0  0  0  0  0  0  0  0  0  0  0  0
    6.2621    0.5780    0.0000 C   0  0  0  0  0  0  0  0  0  0  0  0
    4.8009    2.2137    0.0000 C   0  0  0  0  0  0  0  0  0  0  0  0
    4.7836    3.0458    0.0000 O   0  0  0  0  0  0  0  0  0  0  0  0
    4.0940    1.7935    0.0000 C   0  0  0  0  0  0  0  0  0  0  0  0
 10 11  1  0  0  0  0
 10 12  1  0  0  0  0
  2  3  1  0  0  0  0
  1 13  1  0  0  0  0
  3  6  2  0  0  0  0
 13 14  1  0  0  0  0
  1  2  2  0  0  0  0
 14 15  1  0  0  0  0
  5  4  2  0  0  0  0
 15 16  2  0  0  0  0
  6  7  1  0  0  0  0
 16 17  1  0  0  0  0
  7  8  1  0  0  0  0
 17 18  2  0  0  0  0
  8  9  2  0  0  0  0
 18 19  1  0  0  0  0
  9  5  1  0  0  0  0
 19 20  2  0  0  0  0
 20 15  1  0  0  0  0
  4  1  1  0  0  0  0
 18 21  1  0  0  0  0
  8 10  1  0  0  0  0
 21 22  2  0  0  0  0
  5  6  1  0  0  0  0
 21 23  1  0  0  0  0
M  END
> <From>
www.bindingDB.org

> <BindingDB Reactant_set_id>
50404440

> <Ligand InChI>
InChI=1S/C17H16BNO3S/c1-11(20)13-3-5-15(6-4-13)19-10-12-2-7-16-14(8-12)9-17(23-16)18(21)22/h2-9,19,21-22H,10H2,1H3

> <Ligand InChI Key>
HSPMSGHIXSXVHR-UHFFFAOYSA-N

> <BindingDB MonomerID>
50225390

> <BindingDB Ligand Name>
CHEMBL235523::pinacol 5-[(4-acetylphenylamino)methyl]benzo[b]thiophen-2-ylboronate

> <Target Name>
Beta-lactamase TEM

> <Target Source Organism According to Curator or DataSource>


> <Ki (nM)>
 250

> <IC50 (nM)>


> <Kd (nM)>


> <EC50 (nM)>


> <kon (M-1-s-1)>


> <koff (s-1)>


> <pH>


> <Temp C>


> <Curation/DataSource>
ChEMBL

> <Article DOI>
10.1021/jm070643q

> <BindingDB Entry DOI>
10.7270/Q21N80W5

> <PMID>
17956081

> <PubChem AID>


> <Patent Number>


> <Authors>
Venturelli, A; Tondi, D; Cancian, L; Morandi, F; Cannazza, G; Segatore, B; Prati, F; Amicosante, G; Shoichet, BK; Costi, MP

> <Institution>
Universit&#224; degli Studi di Modena e Reggio Emilia

> <Link to Ligand in BindingDB>
http://www.bindingdb.org/bind/chemsearch/marvin/MolStructure.jsp?monomerid=50225390

> <Link to Ligand-Target Pair in BindingDB>
http://www.bindingdb.org/jsp/dbsearch/PrimarySearch_ki.jsp?energyterm=kJ/mole&tag=pol&polymerid=7704&target=Beta-lactamase+TEM&column=ki&startPg=0&Increment=50&submit=Search

> <Link to Ligand-Target Pair in BindingDB>
http://www.bindingdb.org/jsp/dbsearch/PrimarySearch_ki.jsp?energyterm=kJ/mole&tag=r21&monomerid=50225390&enzyme=Beta-lactamase+TEM&column=ki&startPg=0&Increment=50&submit=Search

> <Ligand HET ID in PDB>


> <PDB ID(s) for Ligand-Target Complex>


> <PubChem CID of Ligand>
23655686

> <PubChem SID of Ligand>
104096696

> <ChEBI ID of Ligand>


> <ChEMBL ID of Ligand>
CHEMBL235523

> <DrugBank ID of Ligand>


> <IUPHAR_GRAC ID of Ligand>


> <KEGG ID of Ligand>


> <ZINC ID of Ligand>


> <Number of Protein Chains in Target (bigger than 1 implies a multichain complex)>
1

> <BindingDB Target Chain Sequence>
MSIQHFRVALIPFFAAFCLPVFAHPETLVKVKDAEDQLGARVGYIELDLNSGKILESFRPEERFPMMSTFKVLLCGAVLSRVDAGQEQLGRRIHYSQNDLVEYSPVTEKHLTDGMTVRELCSAAITMSDNTAANLLLTTIGGPKELTAFLHNMGDHVTRLDRWEPELNEAIPNDERDTTMPAAMATTLRKLLTGELLTLASRQQLIDWMEADKVAGPLLRSALPAGWFIADKSGAGERGSRGIIAALGPDGKPSRIVVIYTTGSQATMDERNRQIAEIGASLIKHW

> <PDB ID(s) of Target Chain>
1ERM,1ERO,1ERQ,1ESU,1FQG,1JTD,1JVJ,1JWP,1JWV,1LHY,1LI9,1M40,1NXY,1NY0,1NYM,1NYY,1PZO,1PZP,1S0W,1XPB,1YT4,2V1Z,2V20,3CMZ,3DTM,3JYI,3P98,4DXB,4DXC,4GKU,4ZJ2,5AQ8,5HVI,5HW1,5HW5,5NPO,6B2N,7QLP,7QNK,7U6Q,8DE0

> <UniProt (SwissProt) Recommended Name of Target Chain>
Beta-lactamase TEM

> <UniProt (SwissProt) Entry Name of Target Chain>
BLAT_ECOLX

> <UniProt (SwissProt) Primary ID of Target Chain>
P62593

> <UniProt (SwissProt) Secondary ID(s) of Target Chain>
P00810 Q47313

> <UniProt (SwissProt) Alternative ID(s) of Target Chain>


> <UniProt (TrEMBL) Submitted Name of Target Chain>


> <UniProt (TrEMBL) Entry Name of Target Chain>


> <UniProt (TrEMBL) Primary ID of Target Chain>


> <UniProt (TrEMBL) Secondary ID(s) of Target Chain>


> <UniProt (TrEMBL) Alternative ID(s) of Target Chain>


$$$$

  Mrv0541 11221409162D          

 24 26  0  0  0  0            999 V2000
    8.5620  -16.9565    0.0000 C   0  0  0  0  0  0  0  0  0  0  0  0
    8.5609  -17.7782    0.0000 C   0  0  0  0  0  0  0  0  0  0  0  0
    9.2786  -18.1902    0.0000 C   0  0  0  0  0  0  0  0  0  0  0  0
    9.2768  -16.5444    0.0000 C   0  0  0  0  0  0  0  0  0  0  0  0
    9.9867  -16.9528    0.0000 C   0  0  0  0  0  0  0  0  0  0  0  0
    9.9869  -17.7782    0.0000 C   0  0  0  0  0  0  0  0  0  0  0  0
   10.7718  -18.0301    0.0000 S   0  0  0  0  0  0  0  0  0  0  0  0
   11.2509  -17.3713    0.0000 C   0  0  0  0  0  0  0  0  0  0  0  0
   10.7714  -16.7004    0.0000 C   0  0  0  0  0  0  0  0  0  0  0  0
   12.0745  -17.3752    0.0000 B   0  0  0  0  0  0  0  0  0  0  0  0
   12.4865  -18.0841    0.0000 O   0  0  0  0  0  0  0  0  0  0  0  0
   12.4860  -16.6577    0.0000 O   0  0  0  0  0  0  0  0  0  0  0  0
    7.8405  -16.5407    0.0000 C   0  0  0  0  0  0  0  0  0  0  0  0
    7.1290  -16.9566    0.0000 N   0  0  0  0  0  0  0  0  0  0  0  0
    6.4117  -16.5492    0.0000 C   0  0  0  0  0  0  0  0  0  0  0  0
    6.4085  -15.7291    0.0000 C   0  0  0  0  0  0  0  0  0  0  0  0
    5.6961  -15.3176    0.0000 C   0  0  0  0  0  0  0  0  0  0  0  0
    4.9695  -15.7337    0.0000 C   0  0  0  0  0  0  0  0  0  0  0  0
    4.9765  -16.5615    0.0000 C   0  0  0  0  0  0  0  0  0  0  0  0
    5.6979  -16.9693    0.0000 C   0  0  0  0  0  0  0  0  0  0  0  0
    4.2350  -15.3315    0.0000 O   0  0  0  0  0  0  0  0  0  0  0  0
    3.5224  -15.7640    0.0000 C   0  0  0  0  0  0  0  0  0  0  0  0
    4.2566  -16.9843    0.0000 O   0  0  0  0  0  0  0  0  0  0  0  0
    3.5360  -16.5724    0.0000 C   0  0  0  0  0  0  0  0  0  0  0  0
 10 12  1  0  0  0  0
  2  3  1  0  0  0  0
  1 13  1  0  0  0  0
  3  6  2  0  0  0  0
 13 14  1  0  0  0  0
  1  2  2  0  0  0  0
 14 15  1  0  0  0  0
  5  4  2  0  0  0  0
 15 16  2  0  0  0  0
  6  7  1  0  0  0  0
 16 17  1  0  0  0  0
  7  8  1  0  0  0  0
 17 18  2  0  0  0  0
  8  9  2  0  0  0  0
 18 19  1  0  0  0  0
  9  5  1  0  0  0  0
 19 20  2  0  0  0  0
 20 15  1  0  0  0  0
  4  1  1  0  0  0  0
 18 21  1  0  0  0  0
  8 10  1  0  0  0  0
 21 22  1  0  0  0  0
  5  6  1  0  0  0  0
 19 23  1  0  0  0  0
 10 11  1  0  0  0  0
 23 24  1  0  0  0  0
M  END
> <From>
www.bindingDB.org

> <BindingDB Reactant_set_id>
50404438

> <Ligand InChI>
InChI=1S/C17H18BNO4S/c1-22-14-5-4-13(9-15(14)23-2)19-10-11-3-6-16-12(7-11)8-17(24-16)18(20)21/h3-9,19-21H,10H2,1-2H3

> <Ligand InChI Key>
IQEFBPFYMDWCHP-UHFFFAOYSA-N

> <BindingDB MonomerID>
50225387

> <BindingDB Ligand Name>
CHEMBL396889::pinacol 5-[(3,4-dimethoxyphenylamino)methyl]benzo[b]thiophen-2-ylboronate

> <Target Name>
Beta-lactamase TEM

> <Target Source Organism According to Curator or DataSource>


> <Ki (nM)>
 250

> <IC50 (nM)>


> <Kd (nM)>


> <EC50 (nM)>


> <kon (M-1-s-1)>


> <koff (s-1)>


> <pH>


> <Temp C>


> <Curation/DataSource>
ChEMBL

> <Article DOI>
10.1021/jm070643q

> <BindingDB Entry DOI>
10.7270/Q21N80W5

> <PMID>
17956081

> <PubChem AID>


> <Patent Number>


> <Authors>
Venturelli, A; Tondi, D; Cancian, L; Morandi, F; Cannazza, G; Segatore, B; Prati, F; Amicosante, G; Shoichet, BK; Costi, MP

> <Institution>
Universit&#224; degli Studi di Modena e Reggio Emilia

> <Link to Ligand in BindingDB>
http://www.bindingdb.org/bind/chemsearch/marvin/MolStructure.jsp?monomerid=50225387

> <Link to Ligand-Target Pair in BindingDB>
http://www.bindingdb.org/jsp/dbsearch/PrimarySearch_ki.jsp?energyterm=kJ/mole&tag=pol&polymerid=7704&target=Beta-lactamase+TEM&column=ki&startPg=0&Increment=50&submit=Search

> <Link to Ligand-Target Pair in BindingDB>
http://www.bindingdb.org/jsp/dbsearch/PrimarySearch_ki.jsp?energyterm=kJ/mole&tag=r21&monomerid=50225387&enzyme=Beta-lactamase+TEM&column=ki&startPg=0&Increment=50&submit=Search

> <Ligand HET ID in PDB>


> <PDB ID(s) for Ligand-Target Complex>


> <PubChem CID of Ligand>
23655487

> <PubChem SID of Ligand>
104096693

> <ChEBI ID of Ligand>


> <ChEMBL ID of Ligand>
CHEMBL396889

> <DrugBank ID of Ligand>


> <IUPHAR_GRAC ID of Ligand>


> <KEGG ID of Ligand>


> <ZINC ID of Ligand>


> <Number of Protein Chains in Target (bigger than 1 implies a multichain complex)>
1

> <BindingDB Target Chain Sequence>
MSIQHFRVALIPFFAAFCLPVFAHPETLVKVKDAEDQLGARVGYIELDLNSGKILESFRPEERFPMMSTFKVLLCGAVLSRVDAGQEQLGRRIHYSQNDLVEYSPVTEKHLTDGMTVRELCSAAITMSDNTAANLLLTTIGGPKELTAFLHNMGDHVTRLDRWEPELNEAIPNDERDTTMPAAMATTLRKLLTGELLTLASRQQLIDWMEADKVAGPLLRSALPAGWFIADKSGAGERGSRGIIAALGPDGKPSRIVVIYTTGSQATMDERNRQIAEIGASLIKHW

> <PDB ID(s) of Target Chain>
1ERM,1ERO,1ERQ,1ESU,1FQG,1JTD,1JVJ,1JWP,1JWV,1LHY,1LI9,1M40,1NXY,1NY0,1NYM,1NYY,1PZO,1PZP,1S0W,1XPB,1YT4,2V1Z,2V20,3CMZ,3DTM,3JYI,3P98,4DXB,4DXC,4GKU,4ZJ2,5AQ8,5HVI,5HW1,5HW5,5NPO,6B2N,7QLP,7QNK,7U6Q,8DE0

> <UniProt (SwissProt) Recommended Name of Target Chain>
Beta-lactamase TEM

> <UniProt (SwissProt) Entry Name of Target Chain>
BLAT_ECOLX

> <UniProt (SwissProt) Primary ID of Target Chain>
P62593

> <UniProt (SwissProt) Secondary ID(s) of Target Chain>
P00810 Q47313

> <UniProt (SwissProt) Alternative ID(s) of Target Chain>


> <UniProt (TrEMBL) Submitted Name of Target Chain>


> <UniProt (TrEMBL) Entry Name of Target Chain>


> <UniProt (TrEMBL) Primary ID of Target Chain>


> <UniProt (TrEMBL) Secondary ID(s) of Target Chain>


> <UniProt (TrEMBL) Alternative ID(s) of Target Chain>


$$$$

  Mrv0541 11211411482D          

 27 29  0  0  0  0            999 V2000
    4.1375   -2.2750    0.0000 S   0  0  0  0  0  0  0  0  0  0  0  0
    4.5375   -0.1667    0.0000 C   0  0  0  0  0  0  0  0  0  0  0  0
    5.1167    0.4208    0.0000 S   0  0  0  0  0  0  0  0  0  0  0  0
    4.1375   -1.4417    0.0000 C   0  0  0  0  0  0  0  0  0  0  0  0
    4.7917   -0.9542    0.0000 C   0  0  0  0  0  0  0  0  0  0  0  0
    3.4625   -0.9625    0.0000 S   0  0  0  0  0  0  0  0  0  0  0  0
    3.7125   -0.1750    0.0000 C   0  0  0  0  0  0  0  0  0  0  0  0
    3.3125   -2.2750    0.0000 N   0  0  0  0  0  0  0  0  0  0  0  0
    0.6750   -3.5792    0.0000 B   0  0  0  0  0  0  0  0  0  0  0  0
    1.5000   -3.5792    0.0000 C   0  0  0  0  0  0  0  0  0  0  0  0
    4.9625   -2.2750    0.0000 O   0  0  0  0  0  0  0  0  0  0  0  0
    4.1375   -3.1000    0.0000 O   0  0  0  0  0  0  0  0  0  0  0  0
    1.9042   -2.8667    0.0000 C   0  0  0  0  0  0  0  0  0  0  0  0
    5.5250   -0.2917    0.0000 O   0  0  0  0  0  0  0  0  0  0  0  0
    5.7000    1.0083    0.0000 O   0  0  0  0  0  0  0  0  0  0  0  0
    4.5292    1.0083    0.0000 C   0  0  0  0  0  0  0  0  0  0  0  0
    2.7292   -2.8625    0.0000 C   0  0  0  0  0  0  0  0  0  0  0  0
    0.2542   -2.8625    0.0000 O   0  0  0  0  0  0  0  0  0  0  0  0
    0.0875   -4.1625    0.0000 O   0  0  0  0  0  0  0  0  0  0  0  0
    1.9042   -4.2875    0.0000 C   0  0  0  0  0  0  0  0  0  0  0  0
    2.7292   -4.2875    0.0000 C   0  0  0  0  0  0  0  0  0  0  0  0
    3.1417   -3.5750    0.0000 C   0  0  0  0  0  0  0  0  0  0  0  0
    3.7292    0.7958    0.0000 C   0  0  0  0  0  0  0  0  0  0  0  0
    4.7500    1.8083    0.0000 C   0  0  0  0  0  0  0  0  0  0  0  0
    4.1625    2.3958    0.0000 C   0  0  0  0  0  0  0  0  0  0  0  0
    3.1417    1.3750    0.0000 C   0  0  0  0  0  0  0  0  0  0  0  0
    3.3542    2.1833    0.0000 C   0  0  0  0  0  0  0  0  0  0  0  0
  2  5  1  0  0  0  0
  3  2  1  0  0  0  0
  4  1  1  0  0  0  0
  5  4  2  0  0  0  0
  6  4  1  0  0  0  0
  7  6  1  0  0  0  0
  8  1  1  0  0  0  0
  9 10  1  0  0  0  0
 10 13  2  0  0  0  0
 11  1  2  0  0  0  0
 12  1  2  0  0  0  0
 13 17  1  0  0  0  0
 14  3  2  0  0  0  0
 15  3  2  0  0  0  0
 16  3  1  0  0  0  0
 17  8  1  0  0  0  0
 18  9  1  0  0  0  0
 19  9  1  0  0  0  0
 20 21  2  0  0  0  0
 21 22  1  0  0  0  0
 22 17  2  0  0  0  0
 23 16  2  0  0  0  0
 24 16  1  0  0  0  0
 25 24  2  0  0  0  0
 26 23  1  0  0  0  0
 27 25  1  0  0  0  0
  7  2  2  0  0  0  0
 20 10  1  0  0  0  0
 26 27  2  0  0  0  0
M  END
> <From>
www.bindingDB.org

> <BindingDB Reactant_set_id>
74846

> <Ligand InChI>
InChI=1S/C16H14BNO6S3/c19-17(20)12-5-4-6-13(9-12)18-27(23,24)16-10-15(11-25-16)26(21,22)14-7-2-1-3-8-14/h1-11,18-20H

> <Ligand InChI Key>
YZOKHYPIQNIFRQ-UHFFFAOYSA-N

> <BindingDB MonomerID>
50115616

> <BindingDB Ligand Name>
3-(4-BENZENESULFONYL-THIOPHENE-2-SULFONYLAMINO)-PHENYLBORONIC ACID::4-Benzenesulfonyl-thiophene-2-sulfonic acid (3-dihydroxyboranyl-phenyl)-amide::Amide and sulfonamide derivatives, 2::Aza-boronic acid derivative::CHEMBL113381

> <Target Name>
Beta-lactamase

> <Target Source Organism According to Curator or DataSource>
Enterobacter cloacae

> <Ki (nM)>
 2.5e+2

> <IC50 (nM)>


> <Kd (nM)>


> <EC50 (nM)>


> <kon (M-1-s-1)>


> <koff (s-1)>


> <pH>
7

> <Temp C>


> <Curation/DataSource>
Curated from the literature by BindingDB

> <Article DOI>
10.1016/S1074-5521(01)00034-5

> <BindingDB Entry DOI>
10.7270/Q27M06BZ

> <PMID>
11410378

> <PubChem AID>
aid1799472

> <Patent Number>


> <Authors>
Tondi, D; Powers, RA; Caselli, E; Negri, MC; Bl&aacute;zquez, J; Costi, MP; Shoichet, BK

> <Institution>
Northwestern University

> <Link to Ligand in BindingDB>
http://www.bindingdb.org/bind/chemsearch/marvin/MolStructure.jsp?monomerid=50115616

> <Link to Ligand-Target Pair in BindingDB>
http://www.bindingdb.org/jsp/dbsearch/PrimarySearch_ki.jsp?energyterm=kJ/mole&tag=pol&polymerid=50002394&target=Beta-lactamase&column=ki&startPg=0&Increment=50&submit=Search

> <Link to Ligand-Target Pair in BindingDB>
http://www.bindingdb.org/jsp/dbsearch/PrimarySearch_ki.jsp?energyterm=kJ/mole&tag=r21&monomerid=50115616&enzyme=Beta-lactamase&column=ki&startPg=0&Increment=50&submit=Search

> <Ligand HET ID in PDB>
ETP

> <PDB ID(s) for Ligand-Target Complex>
1GA9

> <PubChem CID of Ligand>
1475

> <PubChem SID of Ligand>
104009505

> <ChEBI ID of Ligand>


> <ChEMBL ID of Ligand>
CHEMBL113381

> <DrugBank ID of Ligand>
DB02858

> <IUPHAR_GRAC ID of Ligand>


> <KEGG ID of Ligand>


> <ZINC ID of Ligand>


> <Number of Protein Chains in Target (bigger than 1 implies a multichain complex)>
1

> <BindingDB Target Chain Sequence>
MMRKSLCCALLLGISCSALATPVSEKQLAEVVANTITPLMKAQSVPGMAVAVIYQGKPHYYTFGKADIAANKPVTPQTLFELGSISKTFTGVLGGDAIARGEISLDDAVTRYWPQLTGKQWQGIRMLDLATYTAGGLPLQVPDEVTDNASLLRFYQNWQPQWKPGTTRLYANASIGLFGALAVKPSGMPYEQAMTTRVLKPLKLDHTWINVPKAEEAHYAWGYRDGKAVRVSPGMLDAQAYGVKTNVQDMANWVMANMAPENVADASLKQGIALAQSRYWRIGSMYQGLGWEMLNWPVEANTVVEGSDSKVALAPLPVAEVNPPAPPVKASWVHKTGSTGGFGSYVAFIPEKQIGIVMLANTSYPNPARVEAAYHILEALQ

> <PDB ID(s) of Target Chain>
1XX2,2Q9M,2Q9N,7TI1

> <UniProt (SwissProt) Recommended Name of Target Chain>
Beta-lactamase

> <UniProt (SwissProt) Entry Name of Target Chain>
AMPC_ENTCL

> <UniProt (SwissProt) Primary ID of Target Chain>
P05364

> <UniProt (SwissProt) Secondary ID(s) of Target Chain>


> <UniProt (SwissProt) Alternative ID(s) of Target Chain>


> <UniProt (TrEMBL) Submitted Name of Target Chain>


> <UniProt (TrEMBL) Entry Name of Target Chain>


> <UniProt (TrEMBL) Primary ID of Target Chain>


> <UniProt (TrEMBL) Secondary ID(s) of Target Chain>


> <UniProt (TrEMBL) Alternative ID(s) of Target Chain>


$$$$

  Mrv0541 11221409162D          

 20 22  0  0  0  0            999 V2000
    7.5653  -10.5933    0.0000 C   0  0  0  0  0  0  0  0  0  0  0  0
    7.5641  -11.4147    0.0000 C   0  0  0  0  0  0  0  0  0  0  0  0
    8.2815  -11.8267    0.0000 C   0  0  0  0  0  0  0  0  0  0  0  0
    8.2797  -10.1815    0.0000 C   0  0  0  0  0  0  0  0  0  0  0  0
    8.9894  -10.5897    0.0000 C   0  0  0  0  0  0  0  0  0  0  0  0
    8.9897  -11.4148    0.0000 C   0  0  0  0  0  0  0  0  0  0  0  0
    9.7742  -11.6667    0.0000 S   0  0  0  0  0  0  0  0  0  0  0  0
   10.2532  -11.0081    0.0000 C   0  0  0  0  0  0  0  0  0  0  0  0
    9.7738  -10.3375    0.0000 C   0  0  0  0  0  0  0  0  0  0  0  0
   11.0764  -11.0120    0.0000 B   0  0  0  0  0  0  0  0  0  0  0  0
   11.4882  -11.7206    0.0000 O   0  0  0  0  0  0  0  0  0  0  0  0
   11.4877  -10.2948    0.0000 O   0  0  0  0  0  0  0  0  0  0  0  0
    6.8473  -10.1793    0.0000 C   0  0  0  0  0  0  0  0  0  0  0  0
    6.1342  -10.5951    0.0000 O   0  0  0  0  0  0  0  0  0  0  0  0
    5.4162  -10.1894    0.0000 C   0  0  0  0  0  0  0  0  0  0  0  0
    5.4118   -9.3644    0.0000 C   0  0  0  0  0  0  0  0  0  0  0  0
    4.6987   -8.9546    0.0000 C   0  0  0  0  0  0  0  0  0  0  0  0
    3.9734   -9.3722    0.0000 C   0  0  0  0  0  0  0  0  0  0  0  0
    3.9822  -10.1996    0.0000 C   0  0  0  0  0  0  0  0  0  0  0  0
    4.7000  -10.6098    0.0000 C   0  0  0  0  0  0  0  0  0  0  0  0
  4  1  1  0  0  0  0
  8 10  1  0  0  0  0
  5  6  1  0  0  0  0
 10 11  1  0  0  0  0
 10 12  1  0  0  0  0
  2  3  1  0  0  0  0
  1 13  1  0  0  0  0
  3  6  2  0  0  0  0
 13 14  1  0  0  0  0
  1  2  2  0  0  0  0
 14 15  1  0  0  0  0
  5  4  2  0  0  0  0
 15 16  2  0  0  0  0
  6  7  1  0  0  0  0
 16 17  1  0  0  0  0
  7  8  1  0  0  0  0
 17 18  2  0  0  0  0
  8  9  2  0  0  0  0
 18 19  1  0  0  0  0
  9  5  1  0  0  0  0
 19 20  2  0  0  0  0
 20 15  1  0  0  0  0
M  END
> <From>
www.bindingDB.org

> <BindingDB Reactant_set_id>
50404437

> <Ligand InChI>
InChI=1S/C15H13BO3S/c17-16(18)15-9-12-8-11(6-7-14(12)20-15)10-19-13-4-2-1-3-5-13/h1-9,17-18H,10H2

> <Ligand InChI Key>
KUVZFYLSYWXFBD-UHFFFAOYSA-N

> <BindingDB MonomerID>
50225386

> <BindingDB Ligand Name>
CHEMBL396871::pinacol 5-phenoxymethylbenzo[b]thiophen-2-ylboronate

> <Target Name>
Beta-lactamase TEM

> <Target Source Organism According to Curator or DataSource>


> <Ki (nM)>
 250

> <IC50 (nM)>


> <Kd (nM)>


> <EC50 (nM)>


> <kon (M-1-s-1)>


> <koff (s-1)>


> <pH>


> <Temp C>


> <Curation/DataSource>
ChEMBL

> <Article DOI>
10.1021/jm070643q

> <BindingDB Entry DOI>
10.7270/Q21N80W5

> <PMID>
17956081

> <PubChem AID>


> <Patent Number>


> <Authors>
Venturelli, A; Tondi, D; Cancian, L; Morandi, F; Cannazza, G; Segatore, B; Prati, F; Amicosante, G; Shoichet, BK; Costi, MP

> <Institution>
Universit&#224; degli Studi di Modena e Reggio Emilia

> <Link to Ligand in BindingDB>
http://www.bindingdb.org/bind/chemsearch/marvin/MolStructure.jsp?monomerid=50225386

> <Link to Ligand-Target Pair in BindingDB>
http://www.bindingdb.org/jsp/dbsearch/PrimarySearch_ki.jsp?energyterm=kJ/mole&tag=pol&polymerid=7704&target=Beta-lactamase+TEM&column=ki&startPg=0&Increment=50&submit=Search

> <Link to Ligand-Target Pair in BindingDB>
http://www.bindingdb.org/jsp/dbsearch/PrimarySearch_ki.jsp?energyterm=kJ/mole&tag=r21&monomerid=50225386&enzyme=Beta-lactamase+TEM&column=ki&startPg=0&Increment=50&submit=Search

> <Ligand HET ID in PDB>


> <PDB ID(s) for Ligand-Target Complex>


> <PubChem CID of Ligand>
23655483

> <PubChem SID of Ligand>
104096692

> <ChEBI ID of Ligand>


> <ChEMBL ID of Ligand>
CHEMBL396871

> <DrugBank ID of Ligand>


> <IUPHAR_GRAC ID of Ligand>


> <KEGG ID of Ligand>


> <ZINC ID of Ligand>


> <Number of Protein Chains in Target (bigger than 1 implies a multichain complex)>
1

> <BindingDB Target Chain Sequence>
MSIQHFRVALIPFFAAFCLPVFAHPETLVKVKDAEDQLGARVGYIELDLNSGKILESFRPEERFPMMSTFKVLLCGAVLSRVDAGQEQLGRRIHYSQNDLVEYSPVTEKHLTDGMTVRELCSAAITMSDNTAANLLLTTIGGPKELTAFLHNMGDHVTRLDRWEPELNEAIPNDERDTTMPAAMATTLRKLLTGELLTLASRQQLIDWMEADKVAGPLLRSALPAGWFIADKSGAGERGSRGIIAALGPDGKPSRIVVIYTTGSQATMDERNRQIAEIGASLIKHW

> <PDB ID(s) of Target Chain>
1ERM,1ERO,1ERQ,1ESU,1FQG,1JTD,1JVJ,1JWP,1JWV,1LHY,1LI9,1M40,1NXY,1NY0,1NYM,1NYY,1PZO,1PZP,1S0W,1XPB,1YT4,2V1Z,2V20,3CMZ,3DTM,3JYI,3P98,4DXB,4DXC,4GKU,4ZJ2,5AQ8,5HVI,5HW1,5HW5,5NPO,6B2N,7QLP,7QNK,7U6Q,8DE0

> <UniProt (SwissProt) Recommended Name of Target Chain>
Beta-lactamase TEM

> <UniProt (SwissProt) Entry Name of Target Chain>
BLAT_ECOLX

> <UniProt (SwissProt) Primary ID of Target Chain>
P62593

> <UniProt (SwissProt) Secondary ID(s) of Target Chain>
P00810 Q47313

> <UniProt (SwissProt) Alternative ID(s) of Target Chain>


> <UniProt (TrEMBL) Submitted Name of Target Chain>


> <UniProt (TrEMBL) Entry Name of Target Chain>


> <UniProt (TrEMBL) Primary ID of Target Chain>


> <UniProt (TrEMBL) Secondary ID(s) of Target Chain>


> <UniProt (TrEMBL) Alternative ID(s) of Target Chain>


$$$$

  Mrv0541 11221409162D          

 13 14  0  0  0  0            999 V2000
    2.9672   -0.9951    0.0000 C   0  0  0  0  0  0  0  0  0  0  0  0
    2.9660   -1.8218    0.0000 C   0  0  0  0  0  0  0  0  0  0  0  0
    3.6805   -2.2344    0.0000 C   0  0  0  0  0  0  0  0  0  0  0  0
    3.6787   -0.5825    0.0000 C   0  0  0  0  0  0  0  0  0  0  0  0
    4.3934   -0.9915    0.0000 C   0  0  0  0  0  0  0  0  0  0  0  0
    4.3937   -1.8218    0.0000 C   0  0  0  0  0  0  0  0  0  0  0  0
    5.1836   -2.0783    0.0000 S   0  0  0  0  0  0  0  0  0  0  0  0
    5.6716   -1.4063    0.0000 C   0  0  0  0  0  0  0  0  0  0  0  0
    5.1831   -0.7346    0.0000 C   0  0  0  0  0  0  0  0  0  0  0  0
    6.4960   -1.4060    0.0000 B   0  0  0  0  0  0  0  0  0  0  0  0
    6.9084   -2.1198    0.0000 O   0  0  0  0  0  0  0  0  0  0  0  0
    6.9079   -0.6919    0.0000 O   0  0  0  0  0  0  0  0  0  0  0  0
    2.2532   -0.5830    0.0000 N   0  0  0  0  0  0  0  0  0  0  0  0
  3  6  2  0  0  0  0
  1  2  2  0  0  0  0
  5  4  2  0  0  0  0
  6  7  1  0  0  0  0
  7  8  1  0  0  0  0
  8  9  2  0  0  0  0
  9  5  1  0  0  0  0
  4  1  1  0  0  0  0
  8 10  1  0  0  0  0
  5  6  1  0  0  0  0
 10 11  1  0  0  0  0
 10 12  1  0  0  0  0
  2  3  1  0  0  0  0
  1 13  1  0  0  0  0
M  END
> <From>
www.bindingDB.org

> <BindingDB Reactant_set_id>
50404425

> <Ligand InChI>
InChI=1S/C8H8BNO2S/c10-6-1-2-7-5(3-6)4-8(13-7)9(11)12/h1-4,11-12H,10H2

> <Ligand InChI Key>
JKKGGMCLDMDJBH-UHFFFAOYSA-N

> <BindingDB MonomerID>
50225375

> <BindingDB Ligand Name>
CHEMBL396390::pinacol 5-aminomethylbenzo[b]thiophen-2-ylboronate

> <Target Name>
Beta-lactamase TEM

> <Target Source Organism According to Curator or DataSource>


> <Ki (nM)>
 260

> <IC50 (nM)>


> <Kd (nM)>


> <EC50 (nM)>


> <kon (M-1-s-1)>


> <koff (s-1)>


> <pH>


> <Temp C>


> <Curation/DataSource>
ChEMBL

> <Article DOI>
10.1021/jm070643q

> <BindingDB Entry DOI>
10.7270/Q21N80W5

> <PMID>
17956081

> <PubChem AID>


> <Patent Number>


> <Authors>
Venturelli, A; Tondi, D; Cancian, L; Morandi, F; Cannazza, G; Segatore, B; Prati, F; Amicosante, G; Shoichet, BK; Costi, MP

> <Institution>
Universit&#224; degli Studi di Modena e Reggio Emilia

> <Link to Ligand in BindingDB>
http://www.bindingdb.org/bind/chemsearch/marvin/MolStructure.jsp?monomerid=50225375

> <Link to Ligand-Target Pair in BindingDB>
http://www.bindingdb.org/jsp/dbsearch/PrimarySearch_ki.jsp?energyterm=kJ/mole&tag=pol&polymerid=7704&target=Beta-lactamase+TEM&column=ki&startPg=0&Increment=50&submit=Search

> <Link to Ligand-Target Pair in BindingDB>
http://www.bindingdb.org/jsp/dbsearch/PrimarySearch_ki.jsp?energyterm=kJ/mole&tag=r21&monomerid=50225375&enzyme=Beta-lactamase+TEM&column=ki&startPg=0&Increment=50&submit=Search

> <Ligand HET ID in PDB>


> <PDB ID(s) for Ligand-Target Complex>


> <PubChem CID of Ligand>
24742025

> <PubChem SID of Ligand>
104096681

> <ChEBI ID of Ligand>


> <ChEMBL ID of Ligand>
CHEMBL396390

> <DrugBank ID of Ligand>


> <IUPHAR_GRAC ID of Ligand>


> <KEGG ID of Ligand>


> <ZINC ID of Ligand>


> <Number of Protein Chains in Target (bigger than 1 implies a multichain complex)>
1

> <BindingDB Target Chain Sequence>
MSIQHFRVALIPFFAAFCLPVFAHPETLVKVKDAEDQLGARVGYIELDLNSGKILESFRPEERFPMMSTFKVLLCGAVLSRVDAGQEQLGRRIHYSQNDLVEYSPVTEKHLTDGMTVRELCSAAITMSDNTAANLLLTTIGGPKELTAFLHNMGDHVTRLDRWEPELNEAIPNDERDTTMPAAMATTLRKLLTGELLTLASRQQLIDWMEADKVAGPLLRSALPAGWFIADKSGAGERGSRGIIAALGPDGKPSRIVVIYTTGSQATMDERNRQIAEIGASLIKHW

> <PDB ID(s) of Target Chain>
1ERM,1ERO,1ERQ,1ESU,1FQG,1JTD,1JVJ,1JWP,1JWV,1LHY,1LI9,1M40,1NXY,1NY0,1NYM,1NYY,1PZO,1PZP,1S0W,1XPB,1YT4,2V1Z,2V20,3CMZ,3DTM,3JYI,3P98,4DXB,4DXC,4GKU,4ZJ2,5AQ8,5HVI,5HW1,5HW5,5NPO,6B2N,7QLP,7QNK,7U6Q,8DE0

> <UniProt (SwissProt) Recommended Name of Target Chain>
Beta-lactamase TEM

> <UniProt (SwissProt) Entry Name of Target Chain>
BLAT_ECOLX

> <UniProt (SwissProt) Primary ID of Target Chain>
P62593

> <UniProt (SwissProt) Secondary ID(s) of Target Chain>
P00810 Q47313

> <UniProt (SwissProt) Alternative ID(s) of Target Chain>


> <UniProt (TrEMBL) Submitted Name of Target Chain>


> <UniProt (TrEMBL) Entry Name of Target Chain>


> <UniProt (TrEMBL) Primary ID of Target Chain>


> <UniProt (TrEMBL) Secondary ID(s) of Target Chain>


> <UniProt (TrEMBL) Alternative ID(s) of Target Chain>


$$$$

  Mrv0541 11191401012D          

 16 16  0  0  0  0            999 V2000
   -2.0920    2.6813    0.0000 C   0  0  0  0  0  0  0  0  0  0  0  0
   -1.3775    3.0938    0.0000 C   0  0  0  0  0  0  0  0  0  0  0  0
   -0.6630    2.6813    0.0000 N   0  0  0  0  0  0  0  0  0  0  0  0
   -1.3775    3.9188    0.0000 O   0  0  0  0  0  0  0  0  0  0  0  0
    0.0514    3.0938    0.0000 C   0  0  0  0  0  0  0  0  0  0  0  0
    0.7659    2.6813    0.0000 B   0  0  0  0  0  0  0  0  0  0  0  0
    1.4804    3.0938    0.0000 O   0  0  0  0  0  0  0  0  0  0  0  0
    0.7659    1.8563    0.0000 O   0  0  0  0  0  0  0  0  0  0  0  0
   -2.8064    3.0938    0.0000 O   0  0  0  0  0  0  0  0  0  0  0  0
   -3.5209    2.6813    0.0000 C   0  0  0  0  0  0  0  0  0  0  0  0
   -4.2354    3.0938    0.0000 C   0  0  0  0  0  0  0  0  0  0  0  0
   -4.9498    2.6813    0.0000 C   0  0  0  0  0  0  0  0  0  0  0  0
   -4.9498    1.8562    0.0000 C   0  0  0  0  0  0  0  0  0  0  0  0
   -4.2354    1.4437    0.0000 C   0  0  0  0  0  0  0  0  0  0  0  0
   -3.5209    1.8562    0.0000 C   0  0  0  0  0  0  0  0  0  0  0  0
   -2.0920    1.8563    0.0000 C   0  0  0  0  0  0  0  0  0  0  0  0
  1  2  1  0  0  0  0
  2  3  1  0  0  0  0
  2  4  2  0  0  0  0
  3  5  1  0  0  0  0
  5  6  1  0  0  0  0
  6  7  1  0  0  0  0
  6  8  1  0  0  0  0
  1  9  1  0  0  0  0
  9 10  1  0  0  0  0
 15 10  2  0  0  0  0
 11 10  1  0  0  0  0
 11 12  2  0  0  0  0
 12 13  1  0  0  0  0
 13 14  2  0  0  0  0
 14 15  1  0  0  0  0
  1 16  1  0  0  0  0
M  END
> <From>
www.bindingDB.org

> <BindingDB Reactant_set_id>
74785

> <Ligand InChI>
InChI=1S/C10H14BNO4/c1-8(10(13)12-7-11(14)15)16-9-5-3-2-4-6-9/h2-6,8,14-15H,7H2,1H3,(H,12,13)

> <Ligand InChI Key>
ANNBUKRWNUUGDH-UHFFFAOYSA-N

> <BindingDB MonomerID>
39811

> <BindingDB Ligand Name>
Acylglycineboronic acid, 8

> <Target Name>
Beta-lactamase

> <Target Source Organism According to Curator or DataSource>
Escherichia coli

> <Ki (nM)>
 3.0e+2

> <IC50 (nM)>


> <Kd (nM)>


> <EC50 (nM)>


> <kon (M-1-s-1)>


> <koff (s-1)>


> <pH>
7

> <Temp C>


> <Curation/DataSource>
Curated from the literature by BindingDB

> <Article DOI>
10.1016/S1074-5521(00)00052-1

> <BindingDB Entry DOI>
10.7270/Q2CC0Z3R

> <PMID>
11182316

> <PubChem AID>
aid1799471

> <Patent Number>


> <Authors>
Caselli, E; Powers, RA; Blasczcak, LC; Wu, CY; Prati, F; Shoichet, BK

> <Institution>
Northwestern University

> <Link to Ligand in BindingDB>
http://www.bindingdb.org/bind/chemsearch/marvin/MolStructure.jsp?monomerid=39811

> <Link to Ligand-Target Pair in BindingDB>
http://www.bindingdb.org/jsp/dbsearch/PrimarySearch_ki.jsp?energyterm=kJ/mole&tag=pol&polymerid=4401&target=Beta-lactamase&column=ki&startPg=0&Increment=50&submit=Search

> <Link to Ligand-Target Pair in BindingDB>
http://www.bindingdb.org/jsp/dbsearch/PrimarySearch_ki.jsp?energyterm=kJ/mole&tag=r21&monomerid=39811&enzyme=Beta-lactamase&column=ki&startPg=0&Increment=50&submit=Search

> <Ligand HET ID in PDB>


> <PDB ID(s) for Ligand-Target Complex>


> <PubChem CID of Ligand>
52939987

> <PubChem SID of Ligand>
123080119

> <ChEBI ID of Ligand>


> <ChEMBL ID of Ligand>


> <DrugBank ID of Ligand>


> <IUPHAR_GRAC ID of Ligand>


> <KEGG ID of Ligand>


> <ZINC ID of Ligand>


> <Number of Protein Chains in Target (bigger than 1 implies a multichain complex)>
1

> <BindingDB Target Chain Sequence>
MFKTTLCALLITASCSTFAAPQQINDIVHRTITPLIEQQKIPGMAVAVIYQGKPYYFTWGYADIAKKQPVTQQTLFELGSVSKTFTGVLGGDAIARGEIKLSDPTTKYWPELTAKQWNGITLLHLATYTAGGLPLQVPDEVKSSSDLLRFYQNWQPAWAPGTQRLYANSSIGLFGALAVKPSGLSFEQAMQTRVFQPLKLNHTWINVPPAEEKNYAWGYREGKAVHVSPGALDAEAYGVKSTIEDMARWVQSNLKPLDINEKTLQQGIQLAQSRYWQTGDMYQGLGWEMLDWPVNPDSIINGSDNKIALAARPVKAITPPTPAVRASWVHKTGATGGFGSYVAFIPEKELGIVMLANKNYPNPARVDAAWQILNALQ

> <PDB ID(s) of Target Chain>
1C3B,1FCO,1FSW,1FSY,1GA9,1IEL,1IEM,1KDS,1KDW,1KE0,1KE3,1KE4,1KVM,1L2S,1LL5,1LL9,1LLB,1MXO,1MY8,1XGI,1XGJ,2BLS,2HDQ,2HDR,2HDS,2HDU,2I72,2P9V,2PU2,2PU4,2R9W,2R9X,2RCX,3BLS,3BM6,3GQZ,3GR2,3GRJ,3GSG,3GTC,3GV9,3GVB,3O86,3O87,3O88,4E3I,4E3J,4E3K,4E3L,4E3M,4E3N,4E3O,4JXG,4JXS,4JXV,4JXW,4KG2,4KZ3,4KZ4,4KZ5,4KZ6,4KZ7,4KZ8,4KZ9,4KZA,4KZB,4LV0,4LV1,4LV2,4LV3,4OKP,4OLD,4OLG,6DPT,6DPX,6DPY,6DPZ,6T35,6T3D,6T5Y,6T7L,6TBW,6TPM,6WGQ,6YEN,6YEO,6YPD

> <UniProt (SwissProt) Recommended Name of Target Chain>
Beta-lactamase

> <UniProt (SwissProt) Entry Name of Target Chain>
AMPC_ECOLI

> <UniProt (SwissProt) Primary ID of Target Chain>
P00811

> <UniProt (SwissProt) Secondary ID(s) of Target Chain>
Q2M6F2

> <UniProt (SwissProt) Alternative ID(s) of Target Chain>


> <UniProt (TrEMBL) Submitted Name of Target Chain>


> <UniProt (TrEMBL) Entry Name of Target Chain>


> <UniProt (TrEMBL) Primary ID of Target Chain>


> <UniProt (TrEMBL) Secondary ID(s) of Target Chain>


> <UniProt (TrEMBL) Alternative ID(s) of Target Chain>


$$$$

  Mrv0541 11211416132D          

 22 24  0  0  0  0            999 V2000
    0.8124    0.6624    0.0000 C   0  0  0  0  0  0  0  0  0  0  0  0
    0.1000    0.2458    0.0000 N   0  0  0  0  0  0  0  0  0  0  0  0
   -2.0206   -1.8290    0.0000 B   0  0  0  0  0  0  0  0  0  0  0  0
    1.5165    0.2583    0.0000 C   0  0  0  0  0  0  0  0  0  0  0  0
   -0.6207    0.6582    0.0000 N   0  0  0  0  0  0  0  0  0  0  0  0
   -2.0456   -1.0041    0.0000 C   0  0  0  0  0  0  0  0  0  0  0  0
   -1.3373   -0.5916    0.0000 C   0  0  0  0  0  0  0  0  0  0  0  0
    0.7999    1.4831    0.0000 C   0  0  0  0  0  0  0  0  0  0  0  0
    2.2372    0.6707    0.0000 C   0  0  0  0  0  0  0  0  0  0  0  0
   -1.3373    0.2375    0.0000 C   0  0  0  0  0  0  0  0  0  0  0  0
    1.5123    1.9081    0.0000 C   0  0  0  0  0  0  0  0  0  0  0  0
    2.2247    1.4956    0.0000 C   0  0  0  0  0  0  0  0  0  0  0  0
   -1.2999   -2.2289    0.0000 O   0  0  0  0  0  0  0  0  0  0  0  0
   -2.7247   -2.2539    0.0000 O   0  0  0  0  0  0  0  0  0  0  0  0
    0.0792    1.8956    0.0000 O   0  0  0  0  0  0  0  0  0  0  0  0
   -2.7747   -0.5999    0.0000 C   0  0  0  0  0  0  0  0  0  0  0  0
    1.5248   -0.5666    0.0000 C   0  0  0  0  0  0  0  0  0  0  0  0
   -2.7747    0.2250    0.0000 C   0  0  0  0  0  0  0  0  0  0  0  0
   -2.0623    0.6457    0.0000 C   0  0  0  0  0  0  0  0  0  0  0  0
    2.9414    0.2708    0.0000 C   0  0  0  0  0  0  0  0  0  0  0  0
    2.2372   -0.9749    0.0000 C   0  0  0  0  0  0  0  0  0  0  0  0
    2.9539   -0.5541    0.0000 C   0  0  0  0  0  0  0  0  0  0  0  0
  2  1  1  0  0  0  0
  3  6  1  0  0  0  0
  4  1  2  0  0  0  0
  5  2  2  0  0  0  0
  6  7  2  0  0  0  0
  7 10  1  0  0  0  0
  8  1  1  0  0  0  0
  9  4  1  0  0  0  0
  5 10  1  4  0  0  0
 11  8  2  0  0  0  0
 12 11  1  0  0  0  0
 13  3  1  0  0  0  0
 14  3  1  0  0  0  0
 15  8  1  0  0  0  0
 16 18  2  0  0  0  0
 17  4  1  0  0  0  0
 18 19  1  0  0  0  0
 19 10  2  0  0  0  0
 20  9  1  0  0  0  0
 21 17  2  0  0  0  0
 22 21  1  0  0  0  0
  9 12  2  0  0  0  0
 20 22  2  0  0  0  0
  6 16  1  0  0  0  0
M  END
> <From>
www.bindingDB.org

> <BindingDB Reactant_set_id>
50275067

> <Ligand InChI>
InChI=1S/C16H13BN2O3/c20-15-9-8-11-4-1-2-7-14(11)16(15)19-18-13-6-3-5-12(10-13)17(21)22/h1-10,20-22H

> <Ligand InChI Key>
ATAKVTSBJMUNSJ-UHFFFAOYSA-N

> <BindingDB MonomerID>
50149786

> <BindingDB Ligand Name>
Aza-boronic acid derivative::CHEMBL184695

> <Target Name>
Beta-lactamase

> <Target Source Organism According to Curator or DataSource>
Escherichia coli

> <Ki (nM)>
 300

> <IC50 (nM)>


> <Kd (nM)>


> <EC50 (nM)>


> <kon (M-1-s-1)>


> <koff (s-1)>


> <pH>


> <Temp C>


> <Curation/DataSource>
ChEMBL

> <Article DOI>
10.1016/j.bmcl.2004.05.054

> <BindingDB Entry DOI>
10.7270/Q2XW4J8P

> <PMID>
15225711

> <PubChem AID>


> <Patent Number>


> <Authors>
Buzzoni, V; Blazquez, J; Ferrari, S; Calo, S; Venturelli, A; Costi, MP

> <Institution>
Universit&#224; degli Studi di Modena e Reggio Emilia

> <Link to Ligand in BindingDB>
http://www.bindingdb.org/bind/chemsearch/marvin/MolStructure.jsp?monomerid=50149786

> <Link to Ligand-Target Pair in BindingDB>
http://www.bindingdb.org/jsp/dbsearch/PrimarySearch_ki.jsp?energyterm=kJ/mole&tag=pol&polymerid=4401&target=Beta-lactamase&column=ki&startPg=0&Increment=50&submit=Search

> <Link to Ligand-Target Pair in BindingDB>
http://www.bindingdb.org/jsp/dbsearch/PrimarySearch_ki.jsp?energyterm=kJ/mole&tag=r21&monomerid=50149786&enzyme=Beta-lactamase&column=ki&startPg=0&Increment=50&submit=Search

> <Ligand HET ID in PDB>


> <PDB ID(s) for Ligand-Target Complex>


> <PubChem CID of Ligand>
44392768

> <PubChem SID of Ligand>
104037861

> <ChEBI ID of Ligand>


> <ChEMBL ID of Ligand>
CHEMBL184695

> <DrugBank ID of Ligand>


> <IUPHAR_GRAC ID of Ligand>


> <KEGG ID of Ligand>


> <ZINC ID of Ligand>


> <Number of Protein Chains in Target (bigger than 1 implies a multichain complex)>
1

> <BindingDB Target Chain Sequence>
MFKTTLCALLITASCSTFAAPQQINDIVHRTITPLIEQQKIPGMAVAVIYQGKPYYFTWGYADIAKKQPVTQQTLFELGSVSKTFTGVLGGDAIARGEIKLSDPTTKYWPELTAKQWNGITLLHLATYTAGGLPLQVPDEVKSSSDLLRFYQNWQPAWAPGTQRLYANSSIGLFGALAVKPSGLSFEQAMQTRVFQPLKLNHTWINVPPAEEKNYAWGYREGKAVHVSPGALDAEAYGVKSTIEDMARWVQSNLKPLDINEKTLQQGIQLAQSRYWQTGDMYQGLGWEMLDWPVNPDSIINGSDNKIALAARPVKAITPPTPAVRASWVHKTGATGGFGSYVAFIPEKELGIVMLANKNYPNPARVDAAWQILNALQ

> <PDB ID(s) of Target Chain>
1C3B,1FCO,1FSW,1FSY,1GA9,1IEL,1IEM,1KDS,1KDW,1KE0,1KE3,1KE4,1KVM,1L2S,1LL5,1LL9,1LLB,1MXO,1MY8,1XGI,1XGJ,2BLS,2HDQ,2HDR,2HDS,2HDU,2I72,2P9V,2PU2,2PU4,2R9W,2R9X,2RCX,3BLS,3BM6,3GQZ,3GR2,3GRJ,3GSG,3GTC,3GV9,3GVB,3O86,3O87,3O88,4E3I,4E3J,4E3K,4E3L,4E3M,4E3N,4E3O,4JXG,4JXS,4JXV,4JXW,4KG2,4KZ3,4KZ4,4KZ5,4KZ6,4KZ7,4KZ8,4KZ9,4KZA,4KZB,4LV0,4LV1,4LV2,4LV3,4OKP,4OLD,4OLG,6DPT,6DPX,6DPY,6DPZ,6T35,6T3D,6T5Y,6T7L,6TBW,6TPM,6WGQ,6YEN,6YEO,6YPD

> <UniProt (SwissProt) Recommended Name of Target Chain>
Beta-lactamase

> <UniProt (SwissProt) Entry Name of Target Chain>
AMPC_ECOLI

> <UniProt (SwissProt) Primary ID of Target Chain>
P00811

> <UniProt (SwissProt) Secondary ID(s) of Target Chain>
Q2M6F2

> <UniProt (SwissProt) Alternative ID(s) of Target Chain>


> <UniProt (TrEMBL) Submitted Name of Target Chain>


> <UniProt (TrEMBL) Entry Name of Target Chain>


> <UniProt (TrEMBL) Primary ID of Target Chain>


> <UniProt (TrEMBL) Secondary ID(s) of Target Chain>


> <UniProt (TrEMBL) Alternative ID(s) of Target Chain>


$$$$

  Mrv0541 11211411482D          

 13 13  0  0  0  0            999 V2000
    2.0900   -0.0168    0.0000 C   0  0  0  0  0  0  0  0  0  0  0  0
    1.2691   -0.0168    0.0000 C   0  0  0  0  0  0  0  0  0  0  0  0
    0.8586    0.6994    0.0000 C   0  0  0  0  0  0  0  0  0  0  0  0
    2.4921   -0.7413    0.0000 N   0  0  0  0  0  0  0  0  0  0  0  0
    3.7235   -1.4701    0.0000 B   0  0  0  0  0  0  0  0  0  0  0  0
    0.0377    0.7790    0.0000 S   0  0  0  0  0  0  0  0  0  0  0  0
    3.3214   -0.7456    0.0000 C   0  0  0  0  0  0  0  0  0  0  0  0
   -0.1340    1.5915    0.0000 C   0  0  0  0  0  0  0  0  0  0  0  0
    1.1937    1.4533    0.0000 C   0  0  0  0  0  0  0  0  0  0  0  0
    2.5047    0.6869    0.0000 O   0  0  0  0  0  0  0  0  0  0  0  0
    0.5780    2.0062    0.0000 C   0  0  0  0  0  0  0  0  0  0  0  0
    4.5528   -1.4743    0.0000 O   0  0  0  0  0  0  0  0  0  0  0  0
    3.3046   -2.1738    0.0000 O   0  0  0  0  0  0  0  0  0  0  0  0
  2  1  1  0  0  0  0
  3  2  1  0  0  0  0
  4  1  1  0  0  0  0
  5  7  1  0  0  0  0
  6  3  1  0  0  0  0
  7  4  1  0  0  0  0
  8  6  1  0  0  0  0
  9  3  2  0  0  0  0
 10  1  2  0  0  0  0
 11  9  1  0  0  0  0
 12  5  1  0  0  0  0
 13  5  1  0  0  0  0
  8 11  2  0  0  0  0
M  END
> <From>
www.bindingDB.org

> <BindingDB Reactant_set_id>
74788

> <Ligand InChI>
InChI=1S/C7H10BNO3S/c10-7(9-5-8(11)12)4-6-2-1-3-13-6/h1-3,11-12H,4-5H2,(H,9,10)

> <Ligand InChI Key>
VXAPSUDMBNWYNC-UHFFFAOYSA-N

> <BindingDB MonomerID>
50115621

> <BindingDB Ligand Name>
(2-(thiophen-2-yl)acetamido)methylboronic acid::Acylglycineboronic acid, 11::CHEMBL320049::N-2-THIOPHEN-2-YL-ACETAMIDE BORONIC ACID::N-dihydroxyBoranylmethyl-2-thiophen-2-yl-acetamide

> <Target Name>
Beta-lactamase

> <Target Source Organism According to Curator or DataSource>
Escherichia coli

> <Ki (nM)>
 3.2e+2

> <IC50 (nM)>


> <Kd (nM)>


> <EC50 (nM)>


> <kon (M-1-s-1)>


> <koff (s-1)>


> <pH>
7

> <Temp C>


> <Curation/DataSource>
Curated from the literature by BindingDB

> <Article DOI>
10.1016/S1074-5521(00)00052-1

> <BindingDB Entry DOI>
10.7270/Q2CC0Z3R

> <PMID>
11182316

> <PubChem AID>
aid1799471

> <Patent Number>


> <Authors>
Caselli, E; Powers, RA; Blasczcak, LC; Wu, CY; Prati, F; Shoichet, BK

> <Institution>
Northwestern University

> <Link to Ligand in BindingDB>
http://www.bindingdb.org/bind/chemsearch/marvin/MolStructure.jsp?monomerid=50115621

> <Link to Ligand-Target Pair in BindingDB>
http://www.bindingdb.org/jsp/dbsearch/PrimarySearch_ki.jsp?energyterm=kJ/mole&tag=pol&polymerid=4401&target=Beta-lactamase&column=ki&startPg=0&Increment=50&submit=Search

> <Link to Ligand-Target Pair in BindingDB>
http://www.bindingdb.org/jsp/dbsearch/PrimarySearch_ki.jsp?energyterm=kJ/mole&tag=r21&monomerid=50115621&enzyme=Beta-lactamase&column=ki&startPg=0&Increment=50&submit=Search

> <Ligand HET ID in PDB>
CTB

> <PDB ID(s) for Ligand-Target Complex>
1FSW

> <PubChem CID of Ligand>
2671

> <PubChem SID of Ligand>
104009510

> <ChEBI ID of Ligand>


> <ChEMBL ID of Ligand>
CHEMBL320049

> <DrugBank ID of Ligand>
DB02094

> <IUPHAR_GRAC ID of Ligand>


> <KEGG ID of Ligand>


> <ZINC ID of Ligand>


> <Number of Protein Chains in Target (bigger than 1 implies a multichain complex)>
1

> <BindingDB Target Chain Sequence>
MFKTTLCALLITASCSTFAAPQQINDIVHRTITPLIEQQKIPGMAVAVIYQGKPYYFTWGYADIAKKQPVTQQTLFELGSVSKTFTGVLGGDAIARGEIKLSDPTTKYWPELTAKQWNGITLLHLATYTAGGLPLQVPDEVKSSSDLLRFYQNWQPAWAPGTQRLYANSSIGLFGALAVKPSGLSFEQAMQTRVFQPLKLNHTWINVPPAEEKNYAWGYREGKAVHVSPGALDAEAYGVKSTIEDMARWVQSNLKPLDINEKTLQQGIQLAQSRYWQTGDMYQGLGWEMLDWPVNPDSIINGSDNKIALAARPVKAITPPTPAVRASWVHKTGATGGFGSYVAFIPEKELGIVMLANKNYPNPARVDAAWQILNALQ

> <PDB ID(s) of Target Chain>
1C3B,1FCO,1FSW,1FSY,1GA9,1IEL,1IEM,1KDS,1KDW,1KE0,1KE3,1KE4,1KVM,1L2S,1LL5,1LL9,1LLB,1MXO,1MY8,1XGI,1XGJ,2BLS,2HDQ,2HDR,2HDS,2HDU,2I72,2P9V,2PU2,2PU4,2R9W,2R9X,2RCX,3BLS,3BM6,3GQZ,3GR2,3GRJ,3GSG,3GTC,3GV9,3GVB,3O86,3O87,3O88,4E3I,4E3J,4E3K,4E3L,4E3M,4E3N,4E3O,4JXG,4JXS,4JXV,4JXW,4KG2,4KZ3,4KZ4,4KZ5,4KZ6,4KZ7,4KZ8,4KZ9,4KZA,4KZB,4LV0,4LV1,4LV2,4LV3,4OKP,4OLD,4OLG,6DPT,6DPX,6DPY,6DPZ,6T35,6T3D,6T5Y,6T7L,6TBW,6TPM,6WGQ,6YEN,6YEO,6YPD

> <UniProt (SwissProt) Recommended Name of Target Chain>
Beta-lactamase

> <UniProt (SwissProt) Entry Name of Target Chain>
AMPC_ECOLI

> <UniProt (SwissProt) Primary ID of Target Chain>
P00811

> <UniProt (SwissProt) Secondary ID(s) of Target Chain>
Q2M6F2

> <UniProt (SwissProt) Alternative ID(s) of Target Chain>


> <UniProt (TrEMBL) Submitted Name of Target Chain>


> <UniProt (TrEMBL) Entry Name of Target Chain>


> <UniProt (TrEMBL) Primary ID of Target Chain>


> <UniProt (TrEMBL) Secondary ID(s) of Target Chain>


> <UniProt (TrEMBL) Alternative ID(s) of Target Chain>


$$$$

  Mrv0541 11211411482D          

 13 13  0  0  0  0            999 V2000
    2.0900   -0.0168    0.0000 C   0  0  0  0  0  0  0  0  0  0  0  0
    1.2691   -0.0168    0.0000 C   0  0  0  0  0  0  0  0  0  0  0  0
    0.8586    0.6994    0.0000 C   0  0  0  0  0  0  0  0  0  0  0  0
    2.4921   -0.7413    0.0000 N   0  0  0  0  0  0  0  0  0  0  0  0
    3.7235   -1.4701    0.0000 B   0  0  0  0  0  0  0  0  0  0  0  0
    0.0377    0.7790    0.0000 S   0  0  0  0  0  0  0  0  0  0  0  0
    3.3214   -0.7456    0.0000 C   0  0  0  0  0  0  0  0  0  0  0  0
   -0.1340    1.5915    0.0000 C   0  0  0  0  0  0  0  0  0  0  0  0
    1.1937    1.4533    0.0000 C   0  0  0  0  0  0  0  0  0  0  0  0
    2.5047    0.6869    0.0000 O   0  0  0  0  0  0  0  0  0  0  0  0
    0.5780    2.0062    0.0000 C   0  0  0  0  0  0  0  0  0  0  0  0
    4.5528   -1.4743    0.0000 O   0  0  0  0  0  0  0  0  0  0  0  0
    3.3046   -2.1738    0.0000 O   0  0  0  0  0  0  0  0  0  0  0  0
  2  1  1  0  0  0  0
  3  2  1  0  0  0  0
  4  1  1  0  0  0  0
  5  7  1  0  0  0  0
  6  3  1  0  0  0  0
  7  4  1  0  0  0  0
  8  6  1  0  0  0  0
  9  3  2  0  0  0  0
 10  1  2  0  0  0  0
 11  9  1  0  0  0  0
 12  5  1  0  0  0  0
 13  5  1  0  0  0  0
  8 11  2  0  0  0  0
M  END
> <From>
www.bindingDB.org

> <BindingDB Reactant_set_id>
50209039

> <Ligand InChI>
InChI=1S/C7H10BNO3S/c10-7(9-5-8(11)12)4-6-2-1-3-13-6/h1-3,11-12H,4-5H2,(H,9,10)

> <Ligand InChI Key>
VXAPSUDMBNWYNC-UHFFFAOYSA-N

> <BindingDB MonomerID>
50115621

> <BindingDB Ligand Name>
(2-(thiophen-2-yl)acetamido)methylboronic acid::Acylglycineboronic acid, 11::CHEMBL320049::N-2-THIOPHEN-2-YL-ACETAMIDE BORONIC ACID::N-dihydroxyBoranylmethyl-2-thiophen-2-yl-acetamide

> <Target Name>
Beta-lactamase

> <Target Source Organism According to Curator or DataSource>
Escherichia coli

> <Ki (nM)>
 320

> <IC50 (nM)>


> <Kd (nM)>


> <EC50 (nM)>


> <kon (M-1-s-1)>


> <koff (s-1)>


> <pH>


> <Temp C>


> <Curation/DataSource>
ChEMBL

> <Article DOI>
10.1021/jm020002p

> <BindingDB Entry DOI>
10.7270/Q2CN737M

> <PMID>
12109906

> <PubChem AID>


> <Patent Number>


> <Authors>
Powers, RA; Shoichet, BK

> <Institution>
Northwestern University

> <Link to Ligand in BindingDB>
http://www.bindingdb.org/bind/chemsearch/marvin/MolStructure.jsp?monomerid=50115621

> <Link to Ligand-Target Pair in BindingDB>
http://www.bindingdb.org/jsp/dbsearch/PrimarySearch_ki.jsp?energyterm=kJ/mole&tag=pol&polymerid=4401&target=Beta-lactamase&column=ki&startPg=0&Increment=50&submit=Search

> <Link to Ligand-Target Pair in BindingDB>
http://www.bindingdb.org/jsp/dbsearch/PrimarySearch_ki.jsp?energyterm=kJ/mole&tag=r21&monomerid=50115621&enzyme=Beta-lactamase&column=ki&startPg=0&Increment=50&submit=Search

> <Ligand HET ID in PDB>
CTB

> <PDB ID(s) for Ligand-Target Complex>
1FSW

> <PubChem CID of Ligand>
2671

> <PubChem SID of Ligand>
104009510

> <ChEBI ID of Ligand>


> <ChEMBL ID of Ligand>
CHEMBL320049

> <DrugBank ID of Ligand>
DB02094

> <IUPHAR_GRAC ID of Ligand>


> <KEGG ID of Ligand>


> <ZINC ID of Ligand>


> <Number of Protein Chains in Target (bigger than 1 implies a multichain complex)>
1

> <BindingDB Target Chain Sequence>
MFKTTLCALLITASCSTFAAPQQINDIVHRTITPLIEQQKIPGMAVAVIYQGKPYYFTWGYADIAKKQPVTQQTLFELGSVSKTFTGVLGGDAIARGEIKLSDPTTKYWPELTAKQWNGITLLHLATYTAGGLPLQVPDEVKSSSDLLRFYQNWQPAWAPGTQRLYANSSIGLFGALAVKPSGLSFEQAMQTRVFQPLKLNHTWINVPPAEEKNYAWGYREGKAVHVSPGALDAEAYGVKSTIEDMARWVQSNLKPLDINEKTLQQGIQLAQSRYWQTGDMYQGLGWEMLDWPVNPDSIINGSDNKIALAARPVKAITPPTPAVRASWVHKTGATGGFGSYVAFIPEKELGIVMLANKNYPNPARVDAAWQILNALQ

> <PDB ID(s) of Target Chain>
1C3B,1FCO,1FSW,1FSY,1GA9,1IEL,1IEM,1KDS,1KDW,1KE0,1KE3,1KE4,1KVM,1L2S,1LL5,1LL9,1LLB,1MXO,1MY8,1XGI,1XGJ,2BLS,2HDQ,2HDR,2HDS,2HDU,2I72,2P9V,2PU2,2PU4,2R9W,2R9X,2RCX,3BLS,3BM6,3GQZ,3GR2,3GRJ,3GSG,3GTC,3GV9,3GVB,3O86,3O87,3O88,4E3I,4E3J,4E3K,4E3L,4E3M,4E3N,4E3O,4JXG,4JXS,4JXV,4JXW,4KG2,4KZ3,4KZ4,4KZ5,4KZ6,4KZ7,4KZ8,4KZ9,4KZA,4KZB,4LV0,4LV1,4LV2,4LV3,4OKP,4OLD,4OLG,6DPT,6DPX,6DPY,6DPZ,6T35,6T3D,6T5Y,6T7L,6TBW,6TPM,6WGQ,6YEN,6YEO,6YPD

> <UniProt (SwissProt) Recommended Name of Target Chain>
Beta-lactamase

> <UniProt (SwissProt) Entry Name of Target Chain>
AMPC_ECOLI

> <UniProt (SwissProt) Primary ID of Target Chain>
P00811

> <UniProt (SwissProt) Secondary ID(s) of Target Chain>
Q2M6F2

> <UniProt (SwissProt) Alternative ID(s) of Target Chain>


> <UniProt (TrEMBL) Submitted Name of Target Chain>


> <UniProt (TrEMBL) Entry Name of Target Chain>


> <UniProt (TrEMBL) Primary ID of Target Chain>


> <UniProt (TrEMBL) Secondary ID(s) of Target Chain>


> <UniProt (TrEMBL) Alternative ID(s) of Target Chain>


$$$$

  Mrv0541 11191401012D          

 32 34  0  0  0  0            999 V2000
    0.4411   -0.4585    0.0000 C   0  0  0  0  0  0  0  0  0  0  0  0
    0.4411   -1.2835    0.0000 C   0  0  0  0  0  0  0  0  0  0  0  0
   -0.2734   -1.6960    0.0000 C   0  0  0  0  0  0  0  0  0  0  0  0
   -0.9878   -1.2835    0.0000 C   0  0  0  0  0  0  0  0  0  0  0  0
   -0.9878   -0.4585    0.0000 C   0  0  0  0  0  0  0  0  0  0  0  0
   -0.2734   -0.0460    0.0000 C   0  0  0  0  0  0  0  0  0  0  0  0
   -1.7023   -1.6960    0.0000 B   0  0  0  0  0  0  0  0  0  0  0  0
   -1.7023   -2.5210    0.0000 O   0  0  0  0  0  0  0  0  0  0  0  0
   -2.4168   -1.2835    0.0000 O   0  0  0  0  0  0  0  0  0  0  0  0
   -0.2734    0.7790    0.0000 N   0  0  0  0  0  0  0  0  0  0  0  0
    0.4411    1.1915    0.0000 S   0  0  0  0  0  0  0  0  0  0  0  0
    0.0286    1.9060    0.0000 O   0  0  0  0  0  0  0  0  0  0  0  0
    1.1556    1.6040    0.0000 C   0  0  0  0  0  0  0  0  0  0  0  0
    0.8536    0.4770    0.0000 O   0  0  0  0  0  0  0  0  0  0  0  0
    1.8701    2.8415    0.0000 C   0  0  0  0  0  0  0  0  0  0  0  0
    1.1556    2.4290    0.0000 C   0  0  0  0  0  0  0  0  0  0  0  0
    1.8701    1.1915    0.0000 C   0  0  0  0  0  0  0  0  0  0  0  0
    2.5845    1.6040    0.0000 C   0  0  0  0  0  0  0  0  0  0  0  0
    2.5845    2.4290    0.0000 C   0  0  0  0  0  0  0  0  0  0  0  0
    3.2990    2.8415    0.0000 N   0  0  0  0  0  0  0  0  0  0  0  0
    4.0135    2.4290    0.0000 S   0  0  0  0  0  0  0  0  0  0  0  0
    4.7279    2.0165    0.0000 C   0  0  0  0  0  0  0  0  0  0  0  0
    4.4260    3.1435    0.0000 O   0  0  0  0  0  0  0  0  0  0  0  0
    3.6010    1.7145    0.0000 O   0  0  0  0  0  0  0  0  0  0  0  0
    4.7279    1.1915    0.0000 C   0  0  0  0  0  0  0  0  0  0  0  0
    5.4424    2.4290    0.0000 C   0  0  0  0  0  0  0  0  0  0  0  0
    6.1569    2.0165    0.0000 C   0  0  0  0  0  0  0  0  0  0  0  0
    6.1569    1.1915    0.0000 C   0  0  0  0  0  0  0  0  0  0  0  0
    5.4424    0.7790    0.0000 C   0  0  0  0  0  0  0  0  0  0  0  0
    6.8714    0.7790    0.0000 C   0  0  0  0  0  0  0  0  0  0  0  0
    7.5858    1.1915    0.0000 O   0  0  0  0  0  0  0  0  0  0  0  0
    6.8714   -0.0460    0.0000 O   0  0  0  0  0  0  0  0  0  0  0  0
  1  2  2  0  0  0  0
  2  3  1  0  0  0  0
  3  4  2  0  0  0  0
  4  5  1  0  0  0  0
  5  6  2  0  0  0  0
  1  6  1  0  0  0  0
  4  7  1  0  0  0  0
  7  8  1  0  0  0  0
  7  9  1  0  0  0  0
  6 10  1  0  0  0  0
 10 11  1  0  0  0  0
 11 12  2  0  0  0  0
 11 13  1  0  0  0  0
 11 14  2  0  0  0  0
 16 13  2  0  0  0  0
 13 17  1  0  0  0  0
 15 16  1  0  0  0  0
 17 18  2  0  0  0  0
 18 19  1  0  0  0  0
 15 19  2  0  0  0  0
 20 21  1  0  0  0  0
 21 22  1  0  0  0  0
 21 23  2  0  0  0  0
 21 24  2  0  0  0  0
 25 22  2  0  0  0  0
 22 26  1  0  0  0  0
 26 27  2  0  0  0  0
 27 28  1  0  0  0  0
 28 29  2  0  0  0  0
 25 29  1  0  0  0  0
 28 30  1  0  0  0  0
 30 31  2  0  0  0  0
 30 32  1  0  0  0  0
 19 20  1  0  0  0  0
M  END
> <From>
www.bindingDB.org

> <BindingDB Reactant_set_id>
74843

> <Ligand InChI>
InChI=1S/C19H17BN2O8S2/c23-19(24)13-4-8-17(9-5-13)31(27,28)21-15-6-10-18(11-7-15)32(29,30)22-16-3-1-2-14(12-16)20(25)26/h1-12,21-22,25-26H,(H,23,24)

> <Ligand InChI Key>
CICXSJIUPODKEF-UHFFFAOYSA-N

> <BindingDB MonomerID>
39857

> <BindingDB Ligand Name>
Amide and sulfonamide derivatives, 42

> <Target Name>
Beta-lactamase

> <Target Source Organism According to Curator or DataSource>
Escherichia coli

> <Ki (nM)>
 3.4e+2

> <IC50 (nM)>


> <Kd (nM)>


> <EC50 (nM)>


> <kon (M-1-s-1)>


> <koff (s-1)>


> <pH>
7

> <Temp C>


> <Curation/DataSource>
Curated from the literature by BindingDB

> <Article DOI>
10.1016/S1074-5521(01)00034-5

> <BindingDB Entry DOI>
10.7270/Q27M06BZ

> <PMID>
11410378

> <PubChem AID>
aid1799472

> <Patent Number>


> <Authors>
Tondi, D; Powers, RA; Caselli, E; Negri, MC; Bl&aacute;zquez, J; Costi, MP; Shoichet, BK

> <Institution>
Northwestern University

> <Link to Ligand in BindingDB>
http://www.bindingdb.org/bind/chemsearch/marvin/MolStructure.jsp?monomerid=39857

> <Link to Ligand-Target Pair in BindingDB>
http://www.bindingdb.org/jsp/dbsearch/PrimarySearch_ki.jsp?energyterm=kJ/mole&tag=pol&polymerid=4401&target=Beta-lactamase&column=ki&startPg=0&Increment=50&submit=Search

> <Link to Ligand-Target Pair in BindingDB>
http://www.bindingdb.org/jsp/dbsearch/PrimarySearch_ki.jsp?energyterm=kJ/mole&tag=r21&monomerid=39857&enzyme=Beta-lactamase&column=ki&startPg=0&Increment=50&submit=Search

> <Ligand HET ID in PDB>


> <PDB ID(s) for Ligand-Target Complex>


> <PubChem CID of Ligand>
52940012

> <PubChem SID of Ligand>
123080165

> <ChEBI ID of Ligand>


> <ChEMBL ID of Ligand>


> <DrugBank ID of Ligand>


> <IUPHAR_GRAC ID of Ligand>


> <KEGG ID of Ligand>


> <ZINC ID of Ligand>


> <Number of Protein Chains in Target (bigger than 1 implies a multichain complex)>
1

> <BindingDB Target Chain Sequence>
MFKTTLCALLITASCSTFAAPQQINDIVHRTITPLIEQQKIPGMAVAVIYQGKPYYFTWGYADIAKKQPVTQQTLFELGSVSKTFTGVLGGDAIARGEIKLSDPTTKYWPELTAKQWNGITLLHLATYTAGGLPLQVPDEVKSSSDLLRFYQNWQPAWAPGTQRLYANSSIGLFGALAVKPSGLSFEQAMQTRVFQPLKLNHTWINVPPAEEKNYAWGYREGKAVHVSPGALDAEAYGVKSTIEDMARWVQSNLKPLDINEKTLQQGIQLAQSRYWQTGDMYQGLGWEMLDWPVNPDSIINGSDNKIALAARPVKAITPPTPAVRASWVHKTGATGGFGSYVAFIPEKELGIVMLANKNYPNPARVDAAWQILNALQ

> <PDB ID(s) of Target Chain>
1C3B,1FCO,1FSW,1FSY,1GA9,1IEL,1IEM,1KDS,1KDW,1KE0,1KE3,1KE4,1KVM,1L2S,1LL5,1LL9,1LLB,1MXO,1MY8,1XGI,1XGJ,2BLS,2HDQ,2HDR,2HDS,2HDU,2I72,2P9V,2PU2,2PU4,2R9W,2R9X,2RCX,3BLS,3BM6,3GQZ,3GR2,3GRJ,3GSG,3GTC,3GV9,3GVB,3O86,3O87,3O88,4E3I,4E3J,4E3K,4E3L,4E3M,4E3N,4E3O,4JXG,4JXS,4JXV,4JXW,4KG2,4KZ3,4KZ4,4KZ5,4KZ6,4KZ7,4KZ8,4KZ9,4KZA,4KZB,4LV0,4LV1,4LV2,4LV3,4OKP,4OLD,4OLG,6DPT,6DPX,6DPY,6DPZ,6T35,6T3D,6T5Y,6T7L,6TBW,6TPM,6WGQ,6YEN,6YEO,6YPD

> <UniProt (SwissProt) Recommended Name of Target Chain>
Beta-lactamase

> <UniProt (SwissProt) Entry Name of Target Chain>
AMPC_ECOLI

> <UniProt (SwissProt) Primary ID of Target Chain>
P00811

> <UniProt (SwissProt) Secondary ID(s) of Target Chain>
Q2M6F2

> <UniProt (SwissProt) Alternative ID(s) of Target Chain>


> <UniProt (TrEMBL) Submitted Name of Target Chain>


> <UniProt (TrEMBL) Entry Name of Target Chain>


> <UniProt (TrEMBL) Primary ID of Target Chain>


> <UniProt (TrEMBL) Secondary ID(s) of Target Chain>


> <UniProt (TrEMBL) Alternative ID(s) of Target Chain>


$$$$

  Mrv0541 05171716542D          

 21 24  0  0  0  0            999 V2000
    0.6482    1.7894    0.0000 N   0  0  0  0  0  0  0  0  0  0  0  0
    1.4732    1.7894    0.0000 C   0  0  0  0  0  0  0  0  0  0  0  0
    0.3933    1.0048    0.0000 C   0  0  0  0  0  0  0  0  0  0  0  0
    1.0607    0.5199    0.0000 C   0  0  0  0  0  0  0  0  0  0  0  0
    1.7281    1.0048    0.0000 N   0  0  0  0  0  0  0  0  0  0  0  0
    1.0607   -0.3051    0.0000 C   0  0  0  0  0  0  0  0  0  0  0  0
    1.7751   -0.7176    0.0000 C   0  0  0  0  0  0  0  0  0  0  0  0
    1.7751   -1.5426    0.0000 C   0  0  0  0  0  0  0  0  0  0  0  0
    2.6001   -0.7176    0.0000 C   0  0  2  0  0  0  0  0  0  0  0  0
    2.6001   -1.5426    0.0000 N   0  0  0  0  0  0  0  0  0  0  0  0
    3.3847   -1.7976    0.0000 C   0  0  0  0  0  0  0  0  0  0  0  0
    3.8697   -1.1301    0.0000 C   0  0  0  0  0  0  0  0  0  0  0  0
    3.3848   -0.4627    0.0000 S   0  0  0  0  0  0  0  0  0  0  0  0
    1.1918   -2.1260    0.0000 O   0  0  0  0  0  0  0  0  0  0  0  0
    3.6396   -2.5822    0.0000 C   0  0  0  0  0  0  0  0  0  0  0  0
    4.4466   -2.7537    0.0000 O   0  0  0  0  0  0  0  0  0  0  0  0
    3.0876   -3.1953    0.0000 O   0  5  0  0  0  0  0  0  0  0  0  0
    0.2357    2.5039    0.0000 C   0  0  0  0  0  0  0  0  0  0  0  0
    0.6482    3.2184    0.0000 C   0  0  0  0  0  0  0  0  0  0  0  0
    1.4732    3.2184    0.0000 O   0  0  0  0  0  0  0  0  0  0  0  0
    1.8857    2.5039    0.0000 C   0  0  0  0  0  0  0  0  0  0  0  0
  1  3  4  0  0  0  0
  2  5  4  0  0  0  0
  3  4  4  0  0  0  0
  4  5  4  0  0  0  0
  4  6  1  0  0  0  0
  6  7  2  0  0  0  0
  7  8  1  0  0  0  0
  9  7  1  0  0  0  0
 10  8  1  0  0  0  0
  9 13  1  0  0  0  0
  9 10  1  1  0  0  0
 10 11  1  0  0  0  0
 11 12  2  0  0  0  0
 12 13  1  0  0  0  0
  8 14  2  0  0  0  0
 11 15  1  0  0  0  0
 15 16  2  0  0  0  0
 15 17  1  0  0  0  0
  2 21  1  0  0  0  0
  2  1  4  0  0  0  0
  1 18  1  0  0  0  0
 18 19  1  0  0  0  0
 19 20  1  0  0  0  0
 20 21  1  0  0  0  0
M  CHG  1  17  -1
M  END
> <From>
www.bindingDB.org

> <BindingDB Reactant_set_id>
397440

> <Ligand InChI>
InChI=1S/C13H11N3O4S/c17-11-8(12-16(11)9(6-21-12)13(18)19)3-7-4-15-1-2-20-5-10(15)14-7/h3-4,6,12H,1-2,5H2,(H,18,19)/p-1/b8-3-/t12-/m1/s1

> <Ligand InChI Key>
DMEYZPJEFHGESJ-CPWLGJMPSA-M

> <BindingDB MonomerID>
227599

> <BindingDB Ligand Name>
Penem 3

> <Target Name>
Beta-lactamase OXA-1

> <Target Source Organism According to Curator or DataSource>


> <Ki (nM)>
 380

> <IC50 (nM)>
 60

> <Kd (nM)>


> <EC50 (nM)>


> <kon (M-1-s-1)>


> <koff (s-1)>


> <pH>
7.2

> <Temp C>


> <Curation/DataSource>
Curated from the literature by BindingDB

> <Article DOI>
10.1074/jbc.M113.533562

> <BindingDB Entry DOI>
10.7270/Q2CN72SC

> <PMID>
24443569

> <PubChem AID>
aid1802793

> <Patent Number>


> <Authors>
Che, T; Bethel, CR; Pusztai-Carey, M; Bonomo, RA; Carey, PR

> <Institution>
Case Western Reserve University

> <Link to Ligand in BindingDB>
http://www.bindingdb.org/bind/chemsearch/marvin/MolStructure.jsp?monomerid=227599

> <Link to Ligand-Target Pair in BindingDB>
http://www.bindingdb.org/jsp/dbsearch/PrimarySearch_ki.jsp?energyterm=kJ/mole&tag=pol&polymerid=9753&target=Beta-lactamase+OXA-1&column=ki&startPg=0&Increment=50&submit=Search

> <Link to Ligand-Target Pair in BindingDB>
http://www.bindingdb.org/jsp/dbsearch/PrimarySearch_ki.jsp?energyterm=kJ/mole&tag=r21&monomerid=227599&enzyme=Beta-lactamase+OXA-1&column=ki&startPg=0&Increment=50&submit=Search

> <Ligand HET ID in PDB>


> <PDB ID(s) for Ligand-Target Complex>


> <PubChem CID of Ligand>
134612391

> <PubChem SID of Ligand>
374884577

> <ChEBI ID of Ligand>


> <ChEMBL ID of Ligand>


> <DrugBank ID of Ligand>


> <IUPHAR_GRAC ID of Ligand>


> <KEGG ID of Ligand>


> <ZINC ID of Ligand>


> <Number of Protein Chains in Target (bigger than 1 implies a multichain complex)>
1

> <BindingDB Target Chain Sequence>
MKNTIHINFAIFLIIANIIYSSASASTDISTVASPLFEGTEGCFLLYDASTNAEIAQFNKAKCATQMAPDSTFKIALSLMAFDAEIIDQKTIFKWDKTPKGMEIWNSNHTPKTWMQFSVVWVSQEITQKIGLNKIKNYLKDFDYGNQDFSGDKERNNGLTEAWLESSLKISPEEQIQFLRKIINHNLPVKNSAIENTIENMYLQDLDNSTKLYGKTGAGFTANRTLQNGWFEGFIISKSGHKYVFVSALTGNLGSNLTSSIKAKKNAITILNTLNL

> <PDB ID(s) of Target Chain>
1M6K,3ISG

> <UniProt (SwissProt) Recommended Name of Target Chain>
Beta-lactamase OXA-1

> <UniProt (SwissProt) Entry Name of Target Chain>
BLO1_ECOLX

> <UniProt (SwissProt) Primary ID of Target Chain>
P13661

> <UniProt (SwissProt) Secondary ID(s) of Target Chain>


> <UniProt (SwissProt) Alternative ID(s) of Target Chain>


> <UniProt (TrEMBL) Submitted Name of Target Chain>


> <UniProt (TrEMBL) Entry Name of Target Chain>


> <UniProt (TrEMBL) Primary ID of Target Chain>


> <UniProt (TrEMBL) Secondary ID(s) of Target Chain>


> <UniProt (TrEMBL) Alternative ID(s) of Target Chain>


$$$$

  Mrv0541 11191401012D          

 22 22  0  0  0  0            999 V2000
   -2.0921    2.6815    0.0000 C   0  0  0  0  0  0  0  0  0  0  0  0
   -1.3776    3.0940    0.0000 C   0  0  0  0  0  0  0  0  0  0  0  0
   -0.6630    2.6815    0.0000 N   0  0  0  0  0  0  0  0  0  0  0  0
   -1.3776    3.9191    0.0000 O   0  0  0  0  0  0  0  0  0  0  0  0
    0.0514    3.0940    0.0000 C   0  0  0  0  0  0  0  0  0  0  0  0
    0.7660    2.6815    0.0000 B   0  0  0  0  0  0  0  0  0  0  0  0
    1.4805    3.0940    0.0000 O   0  0  0  0  0  0  0  0  0  0  0  0
    0.7660    1.8564    0.0000 O   0  0  0  0  0  0  0  0  0  0  0  0
   -2.8066    3.0940    0.0000 C   0  0  0  0  0  0  0  0  0  0  0  0
   -2.0921    1.8564    0.0000 N   0  0  0  0  0  0  0  0  0  0  0  0
   -3.7987    3.9872    0.0000 S   0  0  0  0  0  0  0  0  0  0  0  0
   -4.1343    3.2335    0.0000 C   0  0  0  0  0  0  0  0  0  0  0  0
   -3.5211    2.6814    0.0000 N   0  0  0  0  0  0  0  0  0  0  0  0
   -2.9782    3.9010    0.0000 C   0  0  0  0  0  0  0  0  0  0  0  0
   -4.9412    3.0619    0.0000 S   0  0  0  0  0  0  0  0  0  0  0  0
   -2.8066    1.4439    0.0000 O   0  0  0  0  0  0  0  0  0  0  0  0
   -2.8066    0.6188    0.0000 C   0  0  0  0  0  0  0  0  0  0  0  0
   -2.1951    1.0608    0.0000 C   0  0  0  0  0  0  0  0  0  0  0  0
   -2.0921    0.2063    0.0000 C   0  0  0  0  0  0  0  0  0  0  0  0
   -2.8066   -0.2062    0.0000 C   0  0  0  0  0  0  0  0  0  0  0  0
   -2.0921   -0.6187    0.0000 O   0  0  0  0  0  0  0  0  0  0  0  0
   -3.5211   -0.6187    0.0000 O   0  5  0  0  0  0  0  0  0  0  0  0
  1  2  1  0  0  0  0
  2  3  1  0  0  0  0
  2  4  2  0  0  0  0
  3  5  1  0  0  0  0
  5  6  1  0  0  0  0
  6  7  1  0  0  0  0
  6  8  1  0  0  0  0
  1  9  1  0  0  0  0
  1 10  2  0  0  0  0
 13  9  1  0  0  0  0
  9 14  2  0  0  0  0
 11 12  1  0  0  0  0
 12 13  2  0  0  0  0
 11 14  1  0  0  0  0
 12 15  1  0  0  0  0
 10 16  1  0  0  0  0
 16 17  1  0  0  0  0
 17 18  1  0  0  0  0
 17 19  1  0  0  0  0
 17 20  1  0  0  0  0
 20 21  2  0  0  0  0
 20 22  1  0  0  0  0
M  CHG  1  22  -1
M  END
> <From>
www.bindingDB.org

> <BindingDB Reactant_set_id>
74800

> <Ligand InChI>
InChI=1S/C10H14BN3O6S2/c1-10(2,8(16)17)20-14-6(5-3-22-9(21)13-5)7(15)12-4-11(18)19/h3,18-19H,4H2,1-2H3,(H,12,15)(H,13,21)(H,16,17)/p-1/b14-6+

> <Ligand InChI Key>
MOINTUJITCEJPI-MKMNVTDBSA-M

> <BindingDB MonomerID>
39816

> <BindingDB Ligand Name>
Acylglycineboronic acid, 15

> <Target Name>
Beta-lactamase

> <Target Source Organism According to Curator or DataSource>
Staphylococcus aureus

> <Ki (nM)>
 3.9e+2

> <IC50 (nM)>


> <Kd (nM)>


> <EC50 (nM)>


> <kon (M-1-s-1)>


> <koff (s-1)>


> <pH>
7

> <Temp C>


> <Curation/DataSource>
Curated from the literature by BindingDB

> <Article DOI>
10.1016/S1074-5521(00)00052-1

> <BindingDB Entry DOI>
10.7270/Q2CC0Z3R

> <PMID>
11182316

> <PubChem AID>
aid1799471

> <Patent Number>


> <Authors>
Caselli, E; Powers, RA; Blasczcak, LC; Wu, CY; Prati, F; Shoichet, BK

> <Institution>
Northwestern University

> <Link to Ligand in BindingDB>
http://www.bindingdb.org/bind/chemsearch/marvin/MolStructure.jsp?monomerid=39816

> <Link to Ligand-Target Pair in BindingDB>
http://www.bindingdb.org/jsp/dbsearch/PrimarySearch_ki.jsp?energyterm=kJ/mole&tag=pol&polymerid=50000333&target=Beta-lactamase&column=ki&startPg=0&Increment=50&submit=Search

> <Link to Ligand-Target Pair in BindingDB>
http://www.bindingdb.org/jsp/dbsearch/PrimarySearch_ki.jsp?energyterm=kJ/mole&tag=r21&monomerid=39816&enzyme=Beta-lactamase&column=ki&startPg=0&Increment=50&submit=Search

> <Ligand HET ID in PDB>


> <PDB ID(s) for Ligand-Target Complex>


> <PubChem CID of Ligand>
52939989

> <PubChem SID of Ligand>
123080124

> <ChEBI ID of Ligand>
29067

> <ChEMBL ID of Ligand>


> <DrugBank ID of Ligand>


> <IUPHAR_GRAC ID of Ligand>


> <KEGG ID of Ligand>


> <ZINC ID of Ligand>


> <Number of Protein Chains in Target (bigger than 1 implies a multichain complex)>
1

> <BindingDB Target Chain Sequence>
MKKLIFLIVIALVLSACNSNSSHAKELNDLEKKYNAHIGVYALDTKSGKEVKFNSDKRFAYASTSKAINSAILLEQVPYNKLNKKVHINKDDIVAYSPILEKYVGKDITLKALIEASMTYSDNTANNKIIKEIGGIKKVKQRLKELGDKVTNPVRYEIELNYYSPKSKKDTSTPAAFGKTLNKLIANGKLSKENKKFLLDLMLNNKSGDTLIKDGVPKDYKVADKSGQAITYASRNDVAFVYPKGQSEPIVLVIFTNKDNKSDKPNDKLISETAKSVMKEF

> <PDB ID(s) of Target Chain>
1OME,3BLM

> <UniProt (SwissProt) Recommended Name of Target Chain>
Beta-lactamase

> <UniProt (SwissProt) Entry Name of Target Chain>
BLAC_STAAU

> <UniProt (SwissProt) Primary ID of Target Chain>
P00807

> <UniProt (SwissProt) Secondary ID(s) of Target Chain>


> <UniProt (SwissProt) Alternative ID(s) of Target Chain>


> <UniProt (TrEMBL) Submitted Name of Target Chain>


> <UniProt (TrEMBL) Entry Name of Target Chain>


> <UniProt (TrEMBL) Primary ID of Target Chain>


> <UniProt (TrEMBL) Secondary ID(s) of Target Chain>


> <UniProt (TrEMBL) Alternative ID(s) of Target Chain>


$$$$

  Mrv0541 11231401522D          

  9  9  0  0  0  0            999 V2000
    5.1343   -5.4548    0.0000 C   0  0  0  0  0  0  0  0  0  0  0  0
    5.6200   -4.7907    0.0000 S   0  0  0  0  0  0  0  0  0  0  0  0
    6.4030   -5.0550    0.0000 C   0  0  0  0  0  0  0  0  0  0  0  0
    4.3050   -5.4515    0.0000 B   0  0  0  0  0  0  0  0  0  0  0  0
    5.6100   -6.1288    0.0000 C   0  0  0  0  0  0  0  0  0  0  0  0
    6.3964   -5.8810    0.0000 C   0  0  0  0  0  0  0  0  0  0  0  0
    7.0704   -4.5726    0.0000 Cl  0  0  0  0  0  0  0  0  0  0  0  0
    3.8986   -4.7312    0.0000 O   0  0  0  0  0  0  0  0  0  0  0  0
    3.8887   -6.1684    0.0000 O   0  0  0  0  0  0  0  0  0  0  0  0
  2  1  1  0  0  0  0
  3  2  1  0  0  0  0
  4  1  1  0  0  0  0
  5  1  2  0  0  0  0
  6  5  1  0  0  0  0
  7  3  1  0  0  0  0
  8  4  1  0  0  0  0
  9  4  1  0  0  0  0
  3  6  2  0  0  0  0
M  END
> <From>
www.bindingDB.org

> <BindingDB Reactant_set_id>
50117300

> <Ligand InChI>
InChI=1S/C4H4BClO2S/c6-4-2-1-3(9-4)5(7)8/h1-2,7-8H

> <Ligand InChI Key>
JFCLNCVCDFUJPO-UHFFFAOYSA-N

> <BindingDB MonomerID>
50067891

> <BindingDB Ligand Name>
5-chlorothiophen-2-ylboronic acid::5-chlorothiphene 2-boronic acid::CHEMBL142592

> <Target Name>
Beta-lactamase

> <Target Source Organism According to Curator or DataSource>
Escherichia coli

> <Ki (nM)>
 410

> <IC50 (nM)>


> <Kd (nM)>


> <EC50 (nM)>


> <kon (M-1-s-1)>


> <koff (s-1)>


> <pH>


> <Temp C>


> <Curation/DataSource>
ChEMBL

> <Article DOI>
10.1021/jm980343w

> <BindingDB Entry DOI>
10.7270/Q22N51FX

> <PMID>
9804697

> <PubChem AID>


> <Patent Number>


> <Authors>
Weston, GS; Blazquez, J; Baquero, F; Shoichet, BK

> <Institution>
Northwestern University Medical School

> <Link to Ligand in BindingDB>
http://www.bindingdb.org/bind/chemsearch/marvin/MolStructure.jsp?monomerid=50067891

> <Link to Ligand-Target Pair in BindingDB>
http://www.bindingdb.org/jsp/dbsearch/PrimarySearch_ki.jsp?energyterm=kJ/mole&tag=pol&polymerid=4401&target=Beta-lactamase&column=ki&startPg=0&Increment=50&submit=Search

> <Link to Ligand-Target Pair in BindingDB>
http://www.bindingdb.org/jsp/dbsearch/PrimarySearch_ki.jsp?energyterm=kJ/mole&tag=r21&monomerid=50067891&enzyme=Beta-lactamase&column=ki&startPg=0&Increment=50&submit=Search

> <Ligand HET ID in PDB>


> <PDB ID(s) for Ligand-Target Complex>


> <PubChem CID of Ligand>
2734324

> <PubChem SID of Ligand>
103962317

> <ChEBI ID of Ligand>


> <ChEMBL ID of Ligand>
CHEMBL142592

> <DrugBank ID of Ligand>


> <IUPHAR_GRAC ID of Ligand>


> <KEGG ID of Ligand>


> <ZINC ID of Ligand>


> <Number of Protein Chains in Target (bigger than 1 implies a multichain complex)>
1

> <BindingDB Target Chain Sequence>
MFKTTLCALLITASCSTFAAPQQINDIVHRTITPLIEQQKIPGMAVAVIYQGKPYYFTWGYADIAKKQPVTQQTLFELGSVSKTFTGVLGGDAIARGEIKLSDPTTKYWPELTAKQWNGITLLHLATYTAGGLPLQVPDEVKSSSDLLRFYQNWQPAWAPGTQRLYANSSIGLFGALAVKPSGLSFEQAMQTRVFQPLKLNHTWINVPPAEEKNYAWGYREGKAVHVSPGALDAEAYGVKSTIEDMARWVQSNLKPLDINEKTLQQGIQLAQSRYWQTGDMYQGLGWEMLDWPVNPDSIINGSDNKIALAARPVKAITPPTPAVRASWVHKTGATGGFGSYVAFIPEKELGIVMLANKNYPNPARVDAAWQILNALQ

> <PDB ID(s) of Target Chain>
1C3B,1FCO,1FSW,1FSY,1GA9,1IEL,1IEM,1KDS,1KDW,1KE0,1KE3,1KE4,1KVM,1L2S,1LL5,1LL9,1LLB,1MXO,1MY8,1XGI,1XGJ,2BLS,2HDQ,2HDR,2HDS,2HDU,2I72,2P9V,2PU2,2PU4,2R9W,2R9X,2RCX,3BLS,3BM6,3GQZ,3GR2,3GRJ,3GSG,3GTC,3GV9,3GVB,3O86,3O87,3O88,4E3I,4E3J,4E3K,4E3L,4E3M,4E3N,4E3O,4JXG,4JXS,4JXV,4JXW,4KG2,4KZ3,4KZ4,4KZ5,4KZ6,4KZ7,4KZ8,4KZ9,4KZA,4KZB,4LV0,4LV1,4LV2,4LV3,4OKP,4OLD,4OLG,6DPT,6DPX,6DPY,6DPZ,6T35,6T3D,6T5Y,6T7L,6TBW,6TPM,6WGQ,6YEN,6YEO,6YPD

> <UniProt (SwissProt) Recommended Name of Target Chain>
Beta-lactamase

> <UniProt (SwissProt) Entry Name of Target Chain>
AMPC_ECOLI

> <UniProt (SwissProt) Primary ID of Target Chain>
P00811

> <UniProt (SwissProt) Secondary ID(s) of Target Chain>
Q2M6F2

> <UniProt (SwissProt) Alternative ID(s) of Target Chain>


> <UniProt (TrEMBL) Submitted Name of Target Chain>


> <UniProt (TrEMBL) Entry Name of Target Chain>


> <UniProt (TrEMBL) Primary ID of Target Chain>


> <UniProt (TrEMBL) Secondary ID(s) of Target Chain>


> <UniProt (TrEMBL) Alternative ID(s) of Target Chain>


$$$$

  Mrv0541 11231414382D          

 12 11  0  0  0  0            999 V2000
   -1.9879    0.0992    0.0000 C   0  0  0  0  0  0  0  0  0  0  0  0
   -1.5462    0.7960    0.0000 C   0  0  0  0  0  0  0  0  0  0  0  0
   -2.8122    0.1332    0.0000 C   0  0  0  0  0  0  0  0  0  0  0  0
   -3.2538   -0.5636    0.0000 C   0  0  0  0  0  0  0  0  0  0  0  0
   -0.7219    0.7620    0.0000 C   0  0  0  0  0  0  0  0  0  0  0  0
   -0.2803    1.4588    0.0000 O   0  5  0  0  0  0  0  0  0  0  0  0
   -1.6052   -0.6317    0.0000 C   0  0  0  0  0  0  0  0  0  0  0  0
   -2.0468   -1.3286    0.0000 O   0  0  0  0  0  0  0  0  0  0  0  0
   -0.7809   -0.6658    0.0000 O   0  5  0  0  0  0  0  0  0  0  0  0
   -1.9289    1.5269    0.0000 C   0  0  0  0  0  0  0  0  0  0  0  0
   -0.3393    0.0311    0.0000 O   0  0  0  0  0  0  0  0  0  0  0  0
   -1.4873    2.2237    0.0000 C   0  0  0  0  0  0  0  0  0  0  0  0
  1  7  1  0  0  0  0
  1  3  1  0  0  0  0
  7  8  2  0  0  0  0
  7  9  1  0  0  0  0
  3  4  1  0  0  0  0
  2 10  1  0  0  0  0
  5 11  2  0  0  0  0
  2  5  1  0  0  0  0
 10 12  1  0  0  0  0
  1  2  2  0  0  0  0
  5  6  1  0  0  0  0
M  CHG  2   6  -1   9  -1
M  END
> <From>
www.bindingDB.org

> <BindingDB Reactant_set_id>
50622369

> <Ligand InChI>
InChI=1S/C8H12O4/c1-3-5(7(9)10)6(4-2)8(11)12/h3-4H2,1-2H3,(H,9,10)(H,11,12)/p-2/b6-5-

> <Ligand InChI Key>
HAHASQAKYSVXBE-WAYWQWQTSA-L

> <BindingDB MonomerID>
50336508

> <BindingDB Ligand Name>
CHEMBL1673299::sodium 2,3-diethylmaleate

> <Target Name>
Beta-lactamase

> <Target Source Organism According to Curator or DataSource>
Pseudomonas aeruginosa

> <Ki (nM)>
 410

> <IC50 (nM)>


> <Kd (nM)>


> <EC50 (nM)>


> <kon (M-1-s-1)>


> <koff (s-1)>


> <pH>


> <Temp C>


> <Curation/DataSource>
ChEMBL

> <Article DOI>
10.1128/AAC.01397-09

> <BindingDB Entry DOI>
10.7270/Q29C6XQ2

> <PMID>
20606062

> <PubChem AID>


> <Patent Number>


> <Authors>
Ishii, Y; Eto, M; Mano, Y; Tateda, K; Yamaguchi, K

> <Institution>
Toho University School of Medicine

> <Link to Ligand in BindingDB>
http://www.bindingdb.org/bind/chemsearch/marvin/MolStructure.jsp?monomerid=50336508

> <Link to Ligand-Target Pair in BindingDB>
http://www.bindingdb.org/jsp/dbsearch/PrimarySearch_ki.jsp?energyterm=kJ/mole&tag=pol&polymerid=4684&target=Beta-lactamase&column=ki&startPg=0&Increment=50&submit=Search

> <Link to Ligand-Target Pair in BindingDB>
http://www.bindingdb.org/jsp/dbsearch/PrimarySearch_ki.jsp?energyterm=kJ/mole&tag=r21&monomerid=50336508&enzyme=Beta-lactamase&column=ki&startPg=0&Increment=50&submit=Search

> <Ligand HET ID in PDB>


> <PDB ID(s) for Ligand-Target Complex>


> <PubChem CID of Ligand>
22486026

> <PubChem SID of Ligand>
125086610

> <ChEBI ID of Ligand>


> <ChEMBL ID of Ligand>
CHEMBL1673299

> <DrugBank ID of Ligand>


> <IUPHAR_GRAC ID of Ligand>


> <KEGG ID of Ligand>


> <ZINC ID of Ligand>
ZINC33902580

> <Number of Protein Chains in Target (bigger than 1 implies a multichain complex)>
1

> <BindingDB Target Chain Sequence>
MSKLSVFFIFLFCSIATAAESLPDLKIEKLDEGVYVHTSFEEVNGWGVVPKHGLVVLVNAEAYLIDTPFTAKDTEKLVTWFVERGYKIKGSISSHFHSDSTGGIEWLNSRSIPTYASELTNELLKKDGKVQATNSFSGVNYWLVKNKIEVFYPGPGHTPDNVVVWLPERKILFGGCFIKPYGLGNLGDANIEAWPKSAKLLKSKYGKAKLVVPSHSEVGDASLLKLTLEQAVKGLNESKKPSKPSN

> <PDB ID(s) of Target Chain>
1DD6,1DDK,1JJE,1JJT,1VGN,2DOO,3WXC,4C1F,4C1G,4UAM,5EV6,5EV8,5EWA,5Y5B,6JED,6LBL,6ZYR,6ZYS,7DTM,7XHW,7YH9,7YHA

> <UniProt (SwissProt) Recommended Name of Target Chain>


> <UniProt (SwissProt) Entry Name of Target Chain>


> <UniProt (SwissProt) Primary ID of Target Chain>


> <UniProt (SwissProt) Secondary ID(s) of Target Chain>


> <UniProt (SwissProt) Alternative ID(s) of Target Chain>


> <UniProt (TrEMBL) Submitted Name of Target Chain>
Beta-lactamase

> <UniProt (TrEMBL) Entry Name of Target Chain>
Q79MP6_PSEAI

> <UniProt (TrEMBL) Primary ID of Target Chain>
Q79MP6

> <UniProt (TrEMBL) Secondary ID(s) of Target Chain>


> <UniProt (TrEMBL) Alternative ID(s) of Target Chain>


$$$$

  Mrv0541 11211416132D          

 23 25  0  0  0  0            999 V2000
    0.6792    0.5833    0.0000 C   0  0  0  0  0  0  0  0  0  0  0  0
   -0.0333    0.1625    0.0000 N   0  0  0  0  0  0  0  0  0  0  0  0
    1.3917    0.1750    0.0000 C   0  0  0  0  0  0  0  0  0  0  0  0
    0.6750    1.4000    0.0000 C   0  0  0  0  0  0  0  0  0  0  0  0
    1.3792    1.8250    0.0000 C   0  0  0  0  0  0  0  0  0  0  0  0
    2.1000    1.4125    0.0000 C   0  0  0  0  0  0  0  0  0  0  0  0
    2.1042    0.5875    0.0000 C   0  0  0  0  0  0  0  0  0  0  0  0
   -2.1500   -1.9125    0.0000 B   0  0  0  0  0  0  0  0  0  0  0  0
   -0.7500    0.5750    0.0000 N   0  0  0  0  0  0  0  0  0  0  0  0
   -2.1708   -1.0875    0.0000 C   0  0  0  0  0  0  0  0  0  0  0  0
   -1.4625   -0.6750    0.0000 C   0  0  0  0  0  0  0  0  0  0  0  0
   -1.4625    0.1583    0.0000 C   0  0  0  0  0  0  0  0  0  0  0  0
   -1.4250   -2.3125    0.0000 O   0  0  0  0  0  0  0  0  0  0  0  0
   -2.8583   -2.3375    0.0000 O   0  0  0  0  0  0  0  0  0  0  0  0
   -0.0500    1.8125    0.0000 O   0  0  0  0  0  0  0  0  0  0  0  0
    2.8125    1.8375    0.0000 O   0  0  0  0  0  0  0  0  0  0  0  0
    1.4000   -0.6500    0.0000 C   0  0  0  0  0  0  0  0  0  0  0  0
   -2.9000   -0.6792    0.0000 C   0  0  0  0  0  0  0  0  0  0  0  0
    2.8167    0.1875    0.0000 C   0  0  0  0  0  0  0  0  0  0  0  0
   -2.9000    0.1458    0.0000 C   0  0  0  0  0  0  0  0  0  0  0  0
   -2.1875    0.5625    0.0000 C   0  0  0  0  0  0  0  0  0  0  0  0
    2.1125   -1.0542    0.0000 C   0  0  0  0  0  0  0  0  0  0  0  0
    2.8250   -0.6375    0.0000 C   0  0  0  0  0  0  0  0  0  0  0  0
  2  1  1  0  0  0  0
  3  1  2  0  0  0  0
  4  1  1  0  0  0  0
  5  4  2  0  0  0  0
  6  5  1  0  0  0  0
  7  3  1  0  0  0  0
  8 10  1  0  0  0  0
  9  2  2  0  0  0  0
 10 11  2  0  0  0  0
 11 12  1  0  0  0  0
  9 12  1  4  0  0  0
 13  8  1  0  0  0  0
 14  8  1  0  0  0  0
 15  4  1  0  0  0  0
 16  6  1  0  0  0  0
 17  3  1  0  0  0  0
 18 20  2  0  0  0  0
 19  7  1  0  0  0  0
 20 21  1  0  0  0  0
 21 12  2  0  0  0  0
 22 17  2  0  0  0  0
 23 22  1  0  0  0  0
  7  6  2  0  0  0  0
 19 23  2  0  0  0  0
 10 18  1  0  0  0  0
M  END
> <From>
www.bindingDB.org

> <BindingDB Reactant_set_id>
50275066

> <Ligand InChI>
InChI=1S/C16H13BN2O4/c20-14-9-15(21)16(13-7-2-1-6-12(13)14)19-18-11-5-3-4-10(8-11)17(22)23/h1-9,20-23H

> <Ligand InChI Key>
JAULTIXRKQKBOH-UHFFFAOYSA-N

> <BindingDB MonomerID>
50149784

> <BindingDB Ligand Name>
Aza-boronic acid derivative::CHEMBL180679

> <Target Name>
Beta-lactamase

> <Target Source Organism According to Curator or DataSource>
Escherichia coli

> <Ki (nM)>
 450

> <IC50 (nM)>


> <Kd (nM)>


> <EC50 (nM)>


> <kon (M-1-s-1)>


> <koff (s-1)>


> <pH>


> <Temp C>


> <Curation/DataSource>
ChEMBL

> <Article DOI>
10.1016/j.bmcl.2004.05.054

> <BindingDB Entry DOI>
10.7270/Q2XW4J8P

> <PMID>
15225711

> <PubChem AID>


> <Patent Number>


> <Authors>
Buzzoni, V; Blazquez, J; Ferrari, S; Calo, S; Venturelli, A; Costi, MP

> <Institution>
Universit&#224; degli Studi di Modena e Reggio Emilia

> <Link to Ligand in BindingDB>
http://www.bindingdb.org/bind/chemsearch/marvin/MolStructure.jsp?monomerid=50149784

> <Link to Ligand-Target Pair in BindingDB>
http://www.bindingdb.org/jsp/dbsearch/PrimarySearch_ki.jsp?energyterm=kJ/mole&tag=pol&polymerid=4401&target=Beta-lactamase&column=ki&startPg=0&Increment=50&submit=Search

> <Link to Ligand-Target Pair in BindingDB>
http://www.bindingdb.org/jsp/dbsearch/PrimarySearch_ki.jsp?energyterm=kJ/mole&tag=r21&monomerid=50149784&enzyme=Beta-lactamase&column=ki&startPg=0&Increment=50&submit=Search

> <Ligand HET ID in PDB>


> <PDB ID(s) for Ligand-Target Complex>


> <PubChem CID of Ligand>
44392789

> <PubChem SID of Ligand>
104037859

> <ChEBI ID of Ligand>


> <ChEMBL ID of Ligand>
CHEMBL180679

> <DrugBank ID of Ligand>


> <IUPHAR_GRAC ID of Ligand>


> <KEGG ID of Ligand>


> <ZINC ID of Ligand>


> <Number of Protein Chains in Target (bigger than 1 implies a multichain complex)>
1

> <BindingDB Target Chain Sequence>
MFKTTLCALLITASCSTFAAPQQINDIVHRTITPLIEQQKIPGMAVAVIYQGKPYYFTWGYADIAKKQPVTQQTLFELGSVSKTFTGVLGGDAIARGEIKLSDPTTKYWPELTAKQWNGITLLHLATYTAGGLPLQVPDEVKSSSDLLRFYQNWQPAWAPGTQRLYANSSIGLFGALAVKPSGLSFEQAMQTRVFQPLKLNHTWINVPPAEEKNYAWGYREGKAVHVSPGALDAEAYGVKSTIEDMARWVQSNLKPLDINEKTLQQGIQLAQSRYWQTGDMYQGLGWEMLDWPVNPDSIINGSDNKIALAARPVKAITPPTPAVRASWVHKTGATGGFGSYVAFIPEKELGIVMLANKNYPNPARVDAAWQILNALQ

> <PDB ID(s) of Target Chain>
1C3B,1FCO,1FSW,1FSY,1GA9,1IEL,1IEM,1KDS,1KDW,1KE0,1KE3,1KE4,1KVM,1L2S,1LL5,1LL9,1LLB,1MXO,1MY8,1XGI,1XGJ,2BLS,2HDQ,2HDR,2HDS,2HDU,2I72,2P9V,2PU2,2PU4,2R9W,2R9X,2RCX,3BLS,3BM6,3GQZ,3GR2,3GRJ,3GSG,3GTC,3GV9,3GVB,3O86,3O87,3O88,4E3I,4E3J,4E3K,4E3L,4E3M,4E3N,4E3O,4JXG,4JXS,4JXV,4JXW,4KG2,4KZ3,4KZ4,4KZ5,4KZ6,4KZ7,4KZ8,4KZ9,4KZA,4KZB,4LV0,4LV1,4LV2,4LV3,4OKP,4OLD,4OLG,6DPT,6DPX,6DPY,6DPZ,6T35,6T3D,6T5Y,6T7L,6TBW,6TPM,6WGQ,6YEN,6YEO,6YPD

> <UniProt (SwissProt) Recommended Name of Target Chain>
Beta-lactamase

> <UniProt (SwissProt) Entry Name of Target Chain>
AMPC_ECOLI

> <UniProt (SwissProt) Primary ID of Target Chain>
P00811

> <UniProt (SwissProt) Secondary ID(s) of Target Chain>
Q2M6F2

> <UniProt (SwissProt) Alternative ID(s) of Target Chain>


> <UniProt (TrEMBL) Submitted Name of Target Chain>


> <UniProt (TrEMBL) Entry Name of Target Chain>


> <UniProt (TrEMBL) Primary ID of Target Chain>


> <UniProt (TrEMBL) Secondary ID(s) of Target Chain>


> <UniProt (TrEMBL) Alternative ID(s) of Target Chain>


$$$$

  Mrv0541 11191401012D          

 31 33  0  0  0  0            999 V2000
   -0.7396    1.4778    0.0000 C   0  0  0  0  0  0  0  0  0  0  0  0
   -1.5646    1.4778    0.0000 C   0  0  0  0  0  0  0  0  0  0  0  0
   -1.9771    2.1922    0.0000 C   0  0  0  0  0  0  0  0  0  0  0  0
   -1.5646    2.9067    0.0000 C   0  0  0  0  0  0  0  0  0  0  0  0
   -0.7396    2.9067    0.0000 C   0  0  0  0  0  0  0  0  0  0  0  0
   -0.3271    2.1922    0.0000 C   0  0  0  0  0  0  0  0  0  0  0  0
   -1.9771    3.6212    0.0000 B   0  0  0  0  0  0  0  0  0  0  0  0
   -2.8021    3.6212    0.0000 O   0  0  0  0  0  0  0  0  0  0  0  0
   -1.5646    4.3356    0.0000 O   0  0  0  0  0  0  0  0  0  0  0  0
    0.4979    2.1922    0.0000 N   0  0  0  0  0  0  0  0  0  0  0  0
    0.9104    1.4778    0.0000 S   0  0  0  0  0  0  0  0  0  0  0  0
    0.4979    0.7633    0.0000 O   0  0  0  0  0  0  0  0  0  0  0  0
    1.7354    1.4778    0.0000 C   0  0  0  0  0  0  0  0  0  0  0  0
    1.3229    2.1923    0.0000 O   0  0  0  0  0  0  0  0  0  0  0  0
    2.9729    2.1923    0.0000 C   0  0  0  0  0  0  0  0  0  0  0  0
    2.1479    2.1923    0.0000 C   0  0  0  0  0  0  0  0  0  0  0  0
    2.1479    0.7633    0.0000 C   0  0  0  0  0  0  0  0  0  0  0  0
    2.9729    0.7634    0.0000 C   0  0  0  0  0  0  0  0  0  0  0  0
    3.3854    1.4778    0.0000 C   0  0  0  0  0  0  0  0  0  0  0  0
    3.3854    0.1667    0.0000 N   0  0  0  0  0  0  0  0  0  0  0  0
    4.0999    0.4614    0.0000 C   0  0  0  0  0  0  0  0  0  0  0  0
    4.6832   -0.1220    0.0000 C   0  0  0  0  0  0  0  0  0  0  0  0
    4.2076    1.2793    0.0000 O   0  0  0  0  0  0  0  0  0  0  0  0
    5.4801    0.0916    0.0000 C   0  0  0  0  0  0  0  0  0  0  0  0
    4.4697   -0.9189    0.0000 C   0  0  0  0  0  0  0  0  0  0  0  0
    5.0531   -1.5022    0.0000 C   0  0  0  0  0  0  0  0  0  0  0  0
    5.8499   -1.2887    0.0000 C   0  0  0  0  0  0  0  0  0  0  0  0
    6.0635   -0.4918    0.0000 C   0  0  0  0  0  0  0  0  0  0  0  0
    6.4333   -1.8721    0.0000 C   0  0  0  0  0  0  0  0  0  0  0  0
    7.2302   -1.6585    0.0000 O   0  0  0  0  0  0  0  0  0  0  0  0
    6.2198   -2.6690    0.0000 O   0  0  0  0  0  0  0  0  0  0  0  0
  1  2  2  0  0  0  0
  2  3  1  0  0  0  0
  3  4  2  0  0  0  0
  4  5  1  0  0  0  0
  5  6  2  0  0  0  0
  1  6  1  0  0  0  0
  4  7  1  0  0  0  0
  7  8  1  0  0  0  0
  7  9  1  0  0  0  0
  6 10  1  0  0  0  0
 10 11  1  0  0  0  0
 11 12  2  0  0  0  0
 11 13  1  0  0  0  0
 11 14  2  0  0  0  0
 16 13  2  0  0  0  0
 13 17  1  0  0  0  0
 15 16  1  0  0  0  0
 17 18  2  0  0  0  0
 18 19  1  0  0  0  0
 15 19  2  0  0  0  0
 18 20  1  0  0  0  0
 20 21  1  0  0  0  0
 21 22  1  0  0  0  0
 21 23  2  0  0  0  0
 24 22  2  0  0  0  0
 22 25  1  0  0  0  0
 25 26  2  0  0  0  0
 26 27  1  0  0  0  0
 27 28  2  0  0  0  0
 24 28  1  0  0  0  0
 27 29  1  0  0  0  0
 29 30  2  0  0  0  0
 29 31  1  0  0  0  0
M  END
> <From>
www.bindingDB.org

> <BindingDB Reactant_set_id>
74837

> <Ligand InChI>
InChI=1S/C20H17BN2O7S/c24-19(13-7-9-14(10-8-13)20(25)26)22-16-4-2-6-18(12-16)31(29,30)23-17-5-1-3-15(11-17)21(27)28/h1-12,23,27-28H,(H,22,24)(H,25,26)

> <Ligand InChI Key>
OWDIKGPDYLATDV-UHFFFAOYSA-N

> <BindingDB MonomerID>
39851

> <BindingDB Ligand Name>
Amide and sulfonamide derivatives, 35

> <Target Name>
Beta-lactamase

> <Target Source Organism According to Curator or DataSource>
Escherichia coli

> <Ki (nM)>
 4.5e+2

> <IC50 (nM)>


> <Kd (nM)>


> <EC50 (nM)>


> <kon (M-1-s-1)>


> <koff (s-1)>


> <pH>
7

> <Temp C>


> <Curation/DataSource>
Curated from the literature by BindingDB

> <Article DOI>
10.1016/S1074-5521(01)00034-5

> <BindingDB Entry DOI>
10.7270/Q27M06BZ

> <PMID>
11410378

> <PubChem AID>
aid1799472

> <Patent Number>


> <Authors>
Tondi, D; Powers, RA; Caselli, E; Negri, MC; Bl&aacute;zquez, J; Costi, MP; Shoichet, BK

> <Institution>
Northwestern University

> <Link to Ligand in BindingDB>
http://www.bindingdb.org/bind/chemsearch/marvin/MolStructure.jsp?monomerid=39851

> <Link to Ligand-Target Pair in BindingDB>
http://www.bindingdb.org/jsp/dbsearch/PrimarySearch_ki.jsp?energyterm=kJ/mole&tag=pol&polymerid=4401&target=Beta-lactamase&column=ki&startPg=0&Increment=50&submit=Search

> <Link to Ligand-Target Pair in BindingDB>
http://www.bindingdb.org/jsp/dbsearch/PrimarySearch_ki.jsp?energyterm=kJ/mole&tag=r21&monomerid=39851&enzyme=Beta-lactamase&column=ki&startPg=0&Increment=50&submit=Search

> <Ligand HET ID in PDB>


> <PDB ID(s) for Ligand-Target Complex>


> <PubChem CID of Ligand>
52940007

> <PubChem SID of Ligand>
123080159

> <ChEBI ID of Ligand>


> <ChEMBL ID of Ligand>


> <DrugBank ID of Ligand>


> <IUPHAR_GRAC ID of Ligand>


> <KEGG ID of Ligand>


> <ZINC ID of Ligand>


> <Number of Protein Chains in Target (bigger than 1 implies a multichain complex)>
1

> <BindingDB Target Chain Sequence>
MFKTTLCALLITASCSTFAAPQQINDIVHRTITPLIEQQKIPGMAVAVIYQGKPYYFTWGYADIAKKQPVTQQTLFELGSVSKTFTGVLGGDAIARGEIKLSDPTTKYWPELTAKQWNGITLLHLATYTAGGLPLQVPDEVKSSSDLLRFYQNWQPAWAPGTQRLYANSSIGLFGALAVKPSGLSFEQAMQTRVFQPLKLNHTWINVPPAEEKNYAWGYREGKAVHVSPGALDAEAYGVKSTIEDMARWVQSNLKPLDINEKTLQQGIQLAQSRYWQTGDMYQGLGWEMLDWPVNPDSIINGSDNKIALAARPVKAITPPTPAVRASWVHKTGATGGFGSYVAFIPEKELGIVMLANKNYPNPARVDAAWQILNALQ

> <PDB ID(s) of Target Chain>
1C3B,1FCO,1FSW,1FSY,1GA9,1IEL,1IEM,1KDS,1KDW,1KE0,1KE3,1KE4,1KVM,1L2S,1LL5,1LL9,1LLB,1MXO,1MY8,1XGI,1XGJ,2BLS,2HDQ,2HDR,2HDS,2HDU,2I72,2P9V,2PU2,2PU4,2R9W,2R9X,2RCX,3BLS,3BM6,3GQZ,3GR2,3GRJ,3GSG,3GTC,3GV9,3GVB,3O86,3O87,3O88,4E3I,4E3J,4E3K,4E3L,4E3M,4E3N,4E3O,4JXG,4JXS,4JXV,4JXW,4KG2,4KZ3,4KZ4,4KZ5,4KZ6,4KZ7,4KZ8,4KZ9,4KZA,4KZB,4LV0,4LV1,4LV2,4LV3,4OKP,4OLD,4OLG,6DPT,6DPX,6DPY,6DPZ,6T35,6T3D,6T5Y,6T7L,6TBW,6TPM,6WGQ,6YEN,6YEO,6YPD

> <UniProt (SwissProt) Recommended Name of Target Chain>
Beta-lactamase

> <UniProt (SwissProt) Entry Name of Target Chain>
AMPC_ECOLI

> <UniProt (SwissProt) Primary ID of Target Chain>
P00811

> <UniProt (SwissProt) Secondary ID(s) of Target Chain>
Q2M6F2

> <UniProt (SwissProt) Alternative ID(s) of Target Chain>


> <UniProt (TrEMBL) Submitted Name of Target Chain>


> <UniProt (TrEMBL) Entry Name of Target Chain>


> <UniProt (TrEMBL) Primary ID of Target Chain>


> <UniProt (TrEMBL) Secondary ID(s) of Target Chain>


> <UniProt (TrEMBL) Alternative ID(s) of Target Chain>


$$$$

  Mrv0541 11221409162D          

 16 17  0  0  0  0            999 V2000
   11.0042   -1.1900    0.0000 C   0  0  0  0  0  0  0  0  0  0  0  0
   11.0030   -2.0120    0.0000 C   0  0  0  0  0  0  0  0  0  0  0  0
   11.7210   -2.4244    0.0000 C   0  0  0  0  0  0  0  0  0  0  0  0
   11.7192   -0.7778    0.0000 C   0  0  0  0  0  0  0  0  0  0  0  0
   12.4295   -1.1864    0.0000 C   0  0  0  0  0  0  0  0  0  0  0  0
   12.4298   -2.0121    0.0000 C   0  0  0  0  0  0  0  0  0  0  0  0
   13.2150   -2.2642    0.0000 S   0  0  0  0  0  0  0  0  0  0  0  0
   13.6943   -1.6051    0.0000 C   0  0  0  0  0  0  0  0  0  0  0  0
   13.2146   -0.9339    0.0000 C   0  0  0  0  0  0  0  0  0  0  0  0
   14.5182   -1.6090    0.0000 B   0  0  0  0  0  0  0  0  0  0  0  0
   14.9303   -2.3181    0.0000 O   0  0  0  0  0  0  0  0  0  0  0  0
   14.9298   -0.8912    0.0000 O   0  0  0  0  0  0  0  0  0  0  0  0
   10.2823   -0.7740    0.0000 C   0  0  0  0  0  0  0  0  0  0  0  0
    9.5706   -1.1902    0.0000 N   0  0  0  0  0  0  0  0  0  0  0  0
    8.8529   -0.7825    0.0000 C   0  0  0  0  0  0  0  0  0  0  0  0
    8.1370   -1.2028    0.0000 O   0  0  0  0  0  0  0  0  0  0  0  0
  6  7  1  0  0  0  0
  7  8  1  0  0  0  0
  8  9  2  0  0  0  0
  9  5  1  0  0  0  0
  4  1  1  0  0  0  0
  8 10  1  0  0  0  0
  5  6  1  0  0  0  0
 10 11  1  0  0  0  0
 10 12  1  0  0  0  0
  2  3  1  0  0  0  0
  1 13  1  0  0  0  0
  3  6  2  0  0  0  0
 13 14  1  0  0  0  0
  1  2  2  0  0  0  0
 14 15  1  0  0  0  0
  5  4  2  0  0  0  0
 15 16  2  0  0  0  0
M  END
> <From>
www.bindingDB.org

> <BindingDB Reactant_set_id>
50404431

> <Ligand InChI>
InChI=1S/C10H10BNO3S/c13-6-12-5-7-1-2-9-8(3-7)4-10(16-9)11(14)15/h1-4,6,14-15H,5H2,(H,12,13)

> <Ligand InChI Key>
HGLTXGPYNBUTBC-UHFFFAOYSA-N

> <BindingDB MonomerID>
50225384

> <BindingDB Ligand Name>
5-formylaminomethylbenzo[b]thiophen-2-ylboronic acid::CHEMBL235291

> <Target Name>
Beta-lactamase TEM

> <Target Source Organism According to Curator or DataSource>


> <Ki (nM)>
 450

> <IC50 (nM)>


> <Kd (nM)>


> <EC50 (nM)>


> <kon (M-1-s-1)>


> <koff (s-1)>


> <pH>


> <Temp C>


> <Curation/DataSource>
ChEMBL

> <Article DOI>
10.1021/jm070643q

> <BindingDB Entry DOI>
10.7270/Q21N80W5

> <PMID>
17956081

> <PubChem AID>


> <Patent Number>


> <Authors>
Venturelli, A; Tondi, D; Cancian, L; Morandi, F; Cannazza, G; Segatore, B; Prati, F; Amicosante, G; Shoichet, BK; Costi, MP

> <Institution>
Universit&#224; degli Studi di Modena e Reggio Emilia

> <Link to Ligand in BindingDB>
http://www.bindingdb.org/bind/chemsearch/marvin/MolStructure.jsp?monomerid=50225384

> <Link to Ligand-Target Pair in BindingDB>
http://www.bindingdb.org/jsp/dbsearch/PrimarySearch_ki.jsp?energyterm=kJ/mole&tag=pol&polymerid=7704&target=Beta-lactamase+TEM&column=ki&startPg=0&Increment=50&submit=Search

> <Link to Ligand-Target Pair in BindingDB>
http://www.bindingdb.org/jsp/dbsearch/PrimarySearch_ki.jsp?energyterm=kJ/mole&tag=r21&monomerid=50225384&enzyme=Beta-lactamase+TEM&column=ki&startPg=0&Increment=50&submit=Search

> <Ligand HET ID in PDB>


> <PDB ID(s) for Ligand-Target Complex>


> <PubChem CID of Ligand>
23655307

> <PubChem SID of Ligand>
104096690

> <ChEBI ID of Ligand>


> <ChEMBL ID of Ligand>
CHEMBL235291

> <DrugBank ID of Ligand>


> <IUPHAR_GRAC ID of Ligand>


> <KEGG ID of Ligand>
C06049

> <ZINC ID of Ligand>


> <Number of Protein Chains in Target (bigger than 1 implies a multichain complex)>
1

> <BindingDB Target Chain Sequence>
MSIQHFRVALIPFFAAFCLPVFAHPETLVKVKDAEDQLGARVGYIELDLNSGKILESFRPEERFPMMSTFKVLLCGAVLSRVDAGQEQLGRRIHYSQNDLVEYSPVTEKHLTDGMTVRELCSAAITMSDNTAANLLLTTIGGPKELTAFLHNMGDHVTRLDRWEPELNEAIPNDERDTTMPAAMATTLRKLLTGELLTLASRQQLIDWMEADKVAGPLLRSALPAGWFIADKSGAGERGSRGIIAALGPDGKPSRIVVIYTTGSQATMDERNRQIAEIGASLIKHW

> <PDB ID(s) of Target Chain>
1ERM,1ERO,1ERQ,1ESU,1FQG,1JTD,1JVJ,1JWP,1JWV,1LHY,1LI9,1M40,1NXY,1NY0,1NYM,1NYY,1PZO,1PZP,1S0W,1XPB,1YT4,2V1Z,2V20,3CMZ,3DTM,3JYI,3P98,4DXB,4DXC,4GKU,4ZJ2,5AQ8,5HVI,5HW1,5HW5,5NPO,6B2N,7QLP,7QNK,7U6Q,8DE0

> <UniProt (SwissProt) Recommended Name of Target Chain>
Beta-lactamase TEM

> <UniProt (SwissProt) Entry Name of Target Chain>
BLAT_ECOLX

> <UniProt (SwissProt) Primary ID of Target Chain>
P62593

> <UniProt (SwissProt) Secondary ID(s) of Target Chain>
P00810 Q47313

> <UniProt (SwissProt) Alternative ID(s) of Target Chain>


> <UniProt (TrEMBL) Submitted Name of Target Chain>


> <UniProt (TrEMBL) Entry Name of Target Chain>


> <UniProt (TrEMBL) Primary ID of Target Chain>


> <UniProt (TrEMBL) Secondary ID(s) of Target Chain>


> <UniProt (TrEMBL) Alternative ID(s) of Target Chain>


$$$$

  Mrv0541 11191401012D          

 32 34  0  0  0  0            999 V2000
   -0.7396    1.4778    0.0000 C   0  0  0  0  0  0  0  0  0  0  0  0
   -1.5646    1.4778    0.0000 C   0  0  0  0  0  0  0  0  0  0  0  0
   -1.9771    2.1922    0.0000 C   0  0  0  0  0  0  0  0  0  0  0  0
   -1.5646    2.9067    0.0000 C   0  0  0  0  0  0  0  0  0  0  0  0
   -0.7396    2.9067    0.0000 C   0  0  0  0  0  0  0  0  0  0  0  0
   -0.3271    2.1922    0.0000 C   0  0  0  0  0  0  0  0  0  0  0  0
   -1.9771    3.6212    0.0000 B   0  0  0  0  0  0  0  0  0  0  0  0
   -2.8021    3.6212    0.0000 O   0  0  0  0  0  0  0  0  0  0  0  0
   -1.5646    4.3356    0.0000 O   0  0  0  0  0  0  0  0  0  0  0  0
    0.4979    2.1922    0.0000 N   0  0  0  0  0  0  0  0  0  0  0  0
    0.9104    1.4778    0.0000 S   0  0  0  0  0  0  0  0  0  0  0  0
    0.4979    0.7633    0.0000 O   0  0  0  0  0  0  0  0  0  0  0  0
    1.7354    1.4778    0.0000 C   0  0  0  0  0  0  0  0  0  0  0  0
    1.3229    2.1923    0.0000 O   0  0  0  0  0  0  0  0  0  0  0  0
    2.9729    2.1923    0.0000 C   0  0  0  0  0  0  0  0  0  0  0  0
    2.1479    2.1923    0.0000 C   0  0  0  0  0  0  0  0  0  0  0  0
    2.1479    0.7633    0.0000 C   0  0  0  0  0  0  0  0  0  0  0  0
    2.9729    0.7634    0.0000 C   0  0  0  0  0  0  0  0  0  0  0  0
    3.3854    1.4778    0.0000 C   0  0  0  0  0  0  0  0  0  0  0  0
    3.5563    0.1800    0.0000 S   0  0  0  0  0  0  0  0  0  0  0  0
    4.2707    0.5925    0.0000 N   0  0  0  0  0  0  0  0  0  0  0  0
    2.8418   -0.2325    0.0000 O   0  0  0  0  0  0  0  0  0  0  0  0
    4.1396   -0.4034    0.0000 O   0  0  0  0  0  0  0  0  0  0  0  0
    4.9852    0.1800    0.0000 C   0  0  0  0  0  0  0  0  0  0  0  0
    5.6997    0.5925    0.0000 C   0  0  0  0  0  0  0  0  0  0  0  0
    4.9852   -0.6450    0.0000 C   0  0  0  0  0  0  0  0  0  0  0  0
    5.6997   -1.0575    0.0000 C   0  0  0  0  0  0  0  0  0  0  0  0
    6.4141   -0.6450    0.0000 C   0  0  0  0  0  0  0  0  0  0  0  0
    6.4141    0.1800    0.0000 C   0  0  0  0  0  0  0  0  0  0  0  0
    5.6997   -1.8825    0.0000 B   0  0  0  0  0  0  0  0  0  0  0  0
    6.4141   -2.2950    0.0000 O   0  0  0  0  0  0  0  0  0  0  0  0
    4.9852   -2.2950    0.0000 O   0  0  0  0  0  0  0  0  0  0  0  0
  1  2  2  0  0  0  0
  2  3  1  0  0  0  0
  3  4  2  0  0  0  0
  4  5  1  0  0  0  0
  5  6  2  0  0  0  0
  1  6  1  0  0  0  0
  4  7  1  0  0  0  0
  7  8  1  0  0  0  0
  7  9  1  0  0  0  0
  6 10  1  0  0  0  0
 10 11  1  0  0  0  0
 11 12  2  0  0  0  0
 11 13  1  0  0  0  0
 11 14  2  0  0  0  0
 16 13  2  0  0  0  0
 13 17  1  0  0  0  0
 15 16  1  0  0  0  0
 17 18  2  0  0  0  0
 18 19  1  0  0  0  0
 15 19  2  0  0  0  0
 18 20  1  0  0  0  0
 20 21  1  0  0  0  0
 20 22  2  0  0  0  0
 20 23  2  0  0  0  0
 21 24  1  0  0  0  0
 25 24  2  0  0  0  0
 24 26  1  0  0  0  0
 26 27  2  0  0  0  0
 27 28  1  0  0  0  0
 28 29  2  0  0  0  0
 25 29  1  0  0  0  0
 27 30  1  0  0  0  0
 30 31  1  0  0  0  0
 30 32  1  0  0  0  0
M  END
> <From>
www.bindingDB.org

> <BindingDB Reactant_set_id>
74849

> <Ligand InChI>
InChI=1S/C18H18B2N2O8S2/c23-19(24)13-4-1-6-15(10-13)21-31(27,28)17-8-3-9-18(12-17)32(29,30)22-16-7-2-5-14(11-16)20(25)26/h1-12,21-26H

> <Ligand InChI Key>
BKZJNYNXBZSUPD-UHFFFAOYSA-N

> <BindingDB MonomerID>
39849

> <BindingDB Ligand Name>
Amide and sulfonamide derivatives, 33

> <Target Name>
Beta-lactamase

> <Target Source Organism According to Curator or DataSource>
Enterobacter cloacae

> <Ki (nM)>
 4.5e+2

> <IC50 (nM)>


> <Kd (nM)>


> <EC50 (nM)>


> <kon (M-1-s-1)>


> <koff (s-1)>


> <pH>
7

> <Temp C>


> <Curation/DataSource>
Curated from the literature by BindingDB

> <Article DOI>
10.1016/S1074-5521(01)00034-5

> <BindingDB Entry DOI>
10.7270/Q27M06BZ

> <PMID>
11410378

> <PubChem AID>
aid1799472

> <Patent Number>


> <Authors>
Tondi, D; Powers, RA; Caselli, E; Negri, MC; Bl&aacute;zquez, J; Costi, MP; Shoichet, BK

> <Institution>
Northwestern University

> <Link to Ligand in BindingDB>
http://www.bindingdb.org/bind/chemsearch/marvin/MolStructure.jsp?monomerid=39849

> <Link to Ligand-Target Pair in BindingDB>
http://www.bindingdb.org/jsp/dbsearch/PrimarySearch_ki.jsp?energyterm=kJ/mole&tag=pol&polymerid=50002394&target=Beta-lactamase&column=ki&startPg=0&Increment=50&submit=Search

> <Link to Ligand-Target Pair in BindingDB>
http://www.bindingdb.org/jsp/dbsearch/PrimarySearch_ki.jsp?energyterm=kJ/mole&tag=r21&monomerid=39849&enzyme=Beta-lactamase&column=ki&startPg=0&Increment=50&submit=Search

> <Ligand HET ID in PDB>


> <PDB ID(s) for Ligand-Target Complex>


> <PubChem CID of Ligand>
9804998

> <PubChem SID of Ligand>
123080157

> <ChEBI ID of Ligand>


> <ChEMBL ID of Ligand>


> <DrugBank ID of Ligand>


> <IUPHAR_GRAC ID of Ligand>


> <KEGG ID of Ligand>


> <ZINC ID of Ligand>


> <Number of Protein Chains in Target (bigger than 1 implies a multichain complex)>
1

> <BindingDB Target Chain Sequence>
MMRKSLCCALLLGISCSALATPVSEKQLAEVVANTITPLMKAQSVPGMAVAVIYQGKPHYYTFGKADIAANKPVTPQTLFELGSISKTFTGVLGGDAIARGEISLDDAVTRYWPQLTGKQWQGIRMLDLATYTAGGLPLQVPDEVTDNASLLRFYQNWQPQWKPGTTRLYANASIGLFGALAVKPSGMPYEQAMTTRVLKPLKLDHTWINVPKAEEAHYAWGYRDGKAVRVSPGMLDAQAYGVKTNVQDMANWVMANMAPENVADASLKQGIALAQSRYWRIGSMYQGLGWEMLNWPVEANTVVEGSDSKVALAPLPVAEVNPPAPPVKASWVHKTGSTGGFGSYVAFIPEKQIGIVMLANTSYPNPARVEAAYHILEALQ

> <PDB ID(s) of Target Chain>
1XX2,2Q9M,2Q9N,7TI1

> <UniProt (SwissProt) Recommended Name of Target Chain>
Beta-lactamase

> <UniProt (SwissProt) Entry Name of Target Chain>
AMPC_ENTCL

> <UniProt (SwissProt) Primary ID of Target Chain>
P05364

> <UniProt (SwissProt) Secondary ID(s) of Target Chain>


> <UniProt (SwissProt) Alternative ID(s) of Target Chain>


> <UniProt (TrEMBL) Submitted Name of Target Chain>


> <UniProt (TrEMBL) Entry Name of Target Chain>


> <UniProt (TrEMBL) Primary ID of Target Chain>


> <UniProt (TrEMBL) Secondary ID(s) of Target Chain>


> <UniProt (TrEMBL) Alternative ID(s) of Target Chain>


$$$$

  Mrv0541 11231414242D          

 30 32  0  0  0  0            999 V2000
   -4.9432  -12.4808    0.0000 C   0  0  0  0  0  0  0  0  0  0  0  0
   -4.2313  -12.0703    0.0000 C   0  0  0  0  0  0  0  0  0  0  0  0
   -4.2319  -11.2432    0.0000 O   0  0  0  0  0  0  0  0  0  0  0  0
   -3.5146  -12.4767    0.0000 O   0  0  0  0  0  0  0  0  0  0  0  0
   -2.8025  -12.0620    0.0000 C   0  0  0  0  0  0  0  0  0  0  0  0
   -2.0837  -12.4747    0.0000 C   0  0  0  0  0  0  0  0  0  0  0  0
   -1.3717  -12.0579    0.0000 C   0  0  0  0  0  0  0  0  0  0  0  0
   -0.6550  -12.4705    0.0000 N   0  0  0  0  0  0  0  0  0  0  0  0
   -0.6543  -13.2976    0.0000 C   0  0  1  0  0  0  0  0  0  0  0  0
    0.1707  -13.2928    0.0000 C   0  0  1  0  0  0  0  0  0  0  0  0
    0.1680  -12.4657    0.0000 C   0  0  0  0  0  0  0  0  0  0  0  0
    0.7464  -11.8848    0.0000 O   0  0  0  0  0  0  0  0  0  0  0  0
    0.7579  -13.8712    0.0000 N   0  0  0  0  0  0  0  0  0  0  0  0
    1.5509  -13.6604    0.0000 C   0  0  0  0  0  0  0  0  0  0  0  0
    1.7629  -12.8649    0.0000 O   0  0  0  0  0  0  0  0  0  0  0  0
    2.1360  -14.2388    0.0000 C   0  0  0  0  0  0  0  0  0  0  0  0
    2.9290  -14.0280    0.0000 N   0  0  0  0  0  0  0  0  0  0  0  0
    3.5141  -14.6062    0.0000 O   0  0  0  0  0  0  0  0  0  0  0  0
    4.3113  -14.3913    0.0000 C   0  0  0  0  0  0  0  0  0  0  0  0
    1.9241  -15.0384    0.0000 C   0  0  0  0  0  0  0  0  0  0  0  0
    1.1508  -15.3386    0.0000 C   0  0  0  0  0  0  0  0  0  0  0  0
    1.2020  -16.1628    0.0000 S   0  0  0  0  0  0  0  0  0  0  0  0
    1.9974  -16.3708    0.0000 C   0  0  0  0  0  0  0  0  0  0  0  0
    2.4463  -15.6781    0.0000 N   0  0  0  0  0  0  0  0  0  0  0  0
    2.2914  -17.1419    0.0000 N   0  0  0  0  0  0  0  0  0  0  0  0
   -1.3684  -13.7080    0.0000 S   0  0  0  0  0  0  0  0  0  0  0  0
   -2.0852  -13.2954    0.0000 C   0  0  0  0  0  0  0  0  0  0  0  0
   -1.3765  -11.2370    0.0000 C   0  0  0  0  0  0  0  0  0  0  0  0
   -2.0891  -10.8245    0.0000 O   0  0  0  0  0  0  0  0  0  0  0  0
   -0.6581  -10.8225    0.0000 O   0  0  0  0  0  0  0  0  0  0  0  0
  2  3  2  0  0  0  0
  2  4  1  0  0  0  0
  4  5  1  0  0  0  0
  5  6  1  0  0  0  0
  6  7  2  0  0  0  0
  7  8  1  0  0  0  0
  9  8  1  1  0  0  0
  9 10  1  0  0  0  0
 10 11  1  0  0  0  0
  8 11  1  0  0  0  0
 11 12  2  0  0  0  0
 10 13  1  1  0  0  0
 13 14  1  0  0  0  0
 14 15  2  0  0  0  0
 14 16  1  0  0  0  0
 16 17  2  0  0  0  0
 17 18  1  0  0  0  0
 18 19  1  0  0  0  0
 16 20  1  0  0  0  0
 20 21  2  0  0  0  0
 21 22  1  0  0  0  0
 22 23  1  0  0  0  0
 23 24  2  0  0  0  0
 20 24  1  0  0  0  0
 23 25  1  0  0  0  0
  9 26  1  0  0  0  0
 26 27  1  0  0  0  0
  6 27  1  0  0  0  0
  7 28  1  0  0  0  0
 28 29  2  0  0  0  0
 28 30  1  0  0  0  0
  1  2  1  0  0  0  0
M  END
> <From>
www.bindingDB.org

> <BindingDB Reactant_set_id>
50619888

> <Ligand InChI>
InChI=1S/C16H17N5O7S2/c1-6(22)28-3-7-4-29-14-10(13(24)21(14)11(7)15(25)26)19-12(23)9(20-27-2)8-5-30-16(17)18-8/h5,10,14H,3-4H2,1-2H3,(H2,17,18)(H,19,23)(H,25,26)/b20-9+/t10-,14-/m1/s1

> <Ligand InChI Key>
GPRBEKHLDVQUJE-VINNURBNSA-N

> <BindingDB MonomerID>
50335523

> <BindingDB Ligand Name>
(6R,7R)-3-(acetoxymethyl)-7-(2-(2-aminothiazol-4-yl)-2-(methoxyimino)acetamido)-8-oxo-5-thia-1-aza-bicyclo[4.2.0]oct-2-ene-2-carboxylic acid::(6R,7R)-3-Acetoxymethyl-7-[2-(2-amino-thiazol-4-yl)-2-hydroxyimino-acetylamino]-8-oxo-5-thia-1-aza-bicyclo[4.2.0]oct-2-ene-2-carboxylic acid::(6R,7R)-3-Acetoxymethyl-7-{2-(2-amino-thiazol-4-yl)-2-[(E)-methoxyimino]-acetylamino}-8-oxo-5-thia-1-aza-bicyclo[4.2.0]oct-2-ene-2-carboxylic acid::(6R,7R)-3-Acetoxymethyl-7-{2-(2-amino-thiazol-4-yl)-2-[(Z)-methoxyimino]-acetylamino}-8-oxo-5-thia-1-aza-bicyclo[4.2.0]oct-2-ene-2-carboxylic acid::(6R,7R,E)-3-(acetoxymethyl)-7-(2-(2-aminothiazol-4-yl)-2-(methoxyimino)acetamido)-8-oxo-5-thia-1-aza-bicyclo[4.2.0]oct-2-ene-2-carboxylic acid::(6R,7R,Z)-3-(acetoxymethyl)-7-(2-(2-aminothiazol-4-yl)-2-(methoxyimino)acetamido)-8-oxo-5-thia-1-aza-bicyclo[4.2.0]oct-2-ene-2-carboxylic acid::(6R,7R,Z)-3-(acetoxymethyl)-7-(2-(5-aminothiophen-3-yl)-2-(methoxyimino)acetamido)-8-oxo-5-thia-1-aza-bicyclo[4.2.0]oct-2-ene-2-carboxylic acid::(6R,7S,Z)-3-(acetoxymethyl)-7-(2-(2-aminothiazol-4-yl)-2-(methoxyimino)acetamido)-8-oxo-5-thia-1-aza-bicyclo[4.2.0]oct-2-ene-2-carboxylic acid::(6S,7S,E)-3-(acetoxymethyl)-7-(2-(2-aminothiazol-4-yl)-2-(methoxyimino)acetamido)-8-oxo-5-thia-1-aza-bicyclo[4.2.0]oct-2-ene-2-carboxylic acid::(Cefotaxime)3-Acetoxymethyl-7-[2-(2-amino-thiazol-4-yl)-2-methoxyimino-acetylamino]-8-oxo-5-thia-1-aza-bicyclo[4.2.0]oct-2-ene-2-carboxylic acid::(R)-3-Acetoxymethyl-7-{2-(2-amino-thiazol-4-yl)-2-[(E)-methoxyimino]-acetylamino}-8-oxo-5-thia-1-aza-bicyclo[4.2.0]oct-2-ene-2-carboxylic acid::3-Acetoxymethyl-7-[2-(2-amino-thiazol-4-yl)-2-methoxyimino-acetylamino]-5,8-dioxo-5lambda*4*-thia-1-aza-bicyclo[4.2.0]oct-2-ene-2-carboxylic acid::3-Acetoxymethyl-7-[2-(2-amino-thiazol-4-yl)-2-methoxyimino-acetylamino]-8-oxo-5-thia-1-aza-bicyclo[4.2.0]oct-2-ene-2-carboxylic acid::3-Acetoxymethyl-7-[2-(2-amino-thiazol-4-yl)-2-methoxyimino-acetylamino]-8-oxo-5-thia-1-aza-bicyclo[4.2.0]oct-2-ene-2-carboxylic acid (Cefotaxime)::3-Acetoxymethyl-7-[2-(2-amino-thiazol-4-yl)-2-methoxyimino-acetylamino]-8-oxo-5-thia-1-aza-bicyclo[4.2.0]oct-2-ene-2-carboxylic acid anion::3-Acetoxymethyl-7-[2-(2-amino-thiazol-4-yl)-2-methoxyimino-acetylamino]-8-oxo-5-thia-1-aza-bicyclo[4.2.0]oct-2-ene-2-carboxylic acid(Cefotaxime)::3-Acetoxymethyl-7-{2-(2-amino-thiazol-4-yl)-2-[(Z)-methoxyimino]-acetylamino}-8-oxo-5-thia-1-aza-bicyclo[4.2.0]oct-2-ene-2-carboxylic acid anion::CHEMBL102::Cefotax::Claforan::Kefotex::cefotaxim::cefotaxime

> <Target Name>
Beta-lactamase

> <Target Source Organism According to Curator or DataSource>
Acinetobacter baumannii

> <Ki (nM)>
 500

> <IC50 (nM)>


> <Kd (nM)>


> <EC50 (nM)>


> <kon (M-1-s-1)>


> <koff (s-1)>


> <pH>


> <Temp C>


> <Curation/DataSource>
ChEMBL

> <Article DOI>
10.1128/AAC.00050-10

> <BindingDB Entry DOI>
10.7270/Q2348KM2

> <PMID>
20547808

> <PubChem AID>


> <Patent Number>


> <Authors>
Rodriguez-Martinez, JM; Nordmann, P; Ronco, E; Poirel, L

> <Institution>
Paris-Sud University

> <Link to Ligand in BindingDB>
http://www.bindingdb.org/bind/chemsearch/marvin/MolStructure.jsp?monomerid=50335523

> <Link to Ligand-Target Pair in BindingDB>
http://www.bindingdb.org/jsp/dbsearch/PrimarySearch_ki.jsp?energyterm=kJ/mole&tag=pol&polymerid=50004683&target=Beta-lactamase&column=ki&startPg=0&Increment=50&submit=Search

> <Link to Ligand-Target Pair in BindingDB>
http://www.bindingdb.org/jsp/dbsearch/PrimarySearch_ki.jsp?energyterm=kJ/mole&tag=r21&monomerid=50335523&enzyme=Beta-lactamase&column=ki&startPg=0&Increment=50&submit=Search

> <Ligand HET ID in PDB>


> <PDB ID(s) for Ligand-Target Complex>


> <PubChem CID of Ligand>
5479527

> <PubChem SID of Ligand>
125085625

> <ChEBI ID of Ligand>


> <ChEMBL ID of Ligand>
CHEMBL102

> <DrugBank ID of Ligand>


> <IUPHAR_GRAC ID of Ligand>


> <KEGG ID of Ligand>
C00875

> <ZINC ID of Ligand>
ZINC03830437

> <Number of Protein Chains in Target (bigger than 1 implies a multichain complex)>
1

> <BindingDB Target Chain Sequence>
LFIFNTSIYAGNTPKDQEIKKLVDQNFKPLLEKYDVPGMAVGVIQNNKKYEMYYGLQSVQDKKAVNSSTIFELGSVSKLFTATAGAYAKNKGKISFDDTPGKYWKELKNTPIDQVNLLQLATYTSGNLALQFPDEVQTDQQVLTFFKDWKPKNPIGEYRQYSNPSIGLFGKVVALSMNKPFDQVLEKIIFPALGLKHSYVNVAKTQMQNYAFGYNQENQPIRVNPGPLDAPAYGVKSTLPDMLSFIHANLNPQKYPADIQRAINETHQGRYQVNTMYQALGWEEFSYPATLQTLLDSNSEQIVMKPNKVTAISKEPSVKMYHKTGSTNGFGTYVVFIPKENIGLVMLTNKRIPNEERIK

> <PDB ID(s) of Target Chain>
4QD4,8CUP,8CUQ,8FQN,8FQO,8FQV,8FQW

> <UniProt (SwissProt) Recommended Name of Target Chain>


> <UniProt (SwissProt) Entry Name of Target Chain>


> <UniProt (SwissProt) Primary ID of Target Chain>


> <UniProt (SwissProt) Secondary ID(s) of Target Chain>


> <UniProt (SwissProt) Alternative ID(s) of Target Chain>


> <UniProt (TrEMBL) Submitted Name of Target Chain>
Beta-lactamase

> <UniProt (TrEMBL) Entry Name of Target Chain>
B2ZTR6_ACIBA

> <UniProt (TrEMBL) Primary ID of Target Chain>
B2ZTR6

> <UniProt (TrEMBL) Secondary ID(s) of Target Chain>


> <UniProt (TrEMBL) Alternative ID(s) of Target Chain>


$$$$

  Mrv0541 11231401522D          

  9  9  0  0  0  0            999 V2000
    5.1343   -5.4548    0.0000 C   0  0  0  0  0  0  0  0  0  0  0  0
    5.6200   -4.7907    0.0000 S   0  0  0  0  0  0  0  0  0  0  0  0
    4.3050   -5.4515    0.0000 B   0  0  0  0  0  0  0  0  0  0  0  0
    5.6100   -6.1288    0.0000 C   0  0  0  0  0  0  0  0  0  0  0  0
    6.4030   -5.0550    0.0000 C   0  0  0  0  0  0  0  0  0  0  0  0
    6.3964   -5.8810    0.0000 C   0  0  0  0  0  0  0  0  0  0  0  0
    3.8887   -6.1684    0.0000 O   0  0  0  0  0  0  0  0  0  0  0  0
    3.8986   -4.7312    0.0000 O   0  0  0  0  0  0  0  0  0  0  0  0
    7.0605   -6.3667    0.0000 C   0  0  0  0  0  0  0  0  0  0  0  0
  2  1  1  0  0  0  0
  3  1  1  0  0  0  0
  4  1  2  0  0  0  0
  5  2  1  0  0  0  0
  6  4  1  0  0  0  0
  7  3  1  0  0  0  0
  8  3  1  0  0  0  0
  9  6  1  0  0  0  0
  5  6  2  0  0  0  0
M  END
> <From>
www.bindingDB.org

> <BindingDB Reactant_set_id>
50117302

> <Ligand InChI>
InChI=1S/C5H7BO2S/c1-4-2-5(6(7)8)9-3-4/h2-3,7-8H,1H3

> <Ligand InChI Key>
DFUMIZDUIJNUJU-UHFFFAOYSA-N

> <BindingDB MonomerID>
50067911

> <BindingDB Ligand Name>
4-methylthiophene 2-boronic acid::CHEMBL334931

> <Target Name>
Beta-lactamase

> <Target Source Organism According to Curator or DataSource>
Escherichia coli

> <Ki (nM)>
 500

> <IC50 (nM)>


> <Kd (nM)>


> <EC50 (nM)>


> <kon (M-1-s-1)>


> <koff (s-1)>


> <pH>


> <Temp C>


> <Curation/DataSource>
ChEMBL

> <Article DOI>
10.1021/jm980343w

> <BindingDB Entry DOI>
10.7270/Q22N51FX

> <PMID>
9804697

> <PubChem AID>


> <Patent Number>


> <Authors>
Weston, GS; Blazquez, J; Baquero, F; Shoichet, BK

> <Institution>
Northwestern University Medical School

> <Link to Ligand in BindingDB>
http://www.bindingdb.org/bind/chemsearch/marvin/MolStructure.jsp?monomerid=50067911

> <Link to Ligand-Target Pair in BindingDB>
http://www.bindingdb.org/jsp/dbsearch/PrimarySearch_ki.jsp?energyterm=kJ/mole&tag=pol&polymerid=4401&target=Beta-lactamase&column=ki&startPg=0&Increment=50&submit=Search

> <Link to Ligand-Target Pair in BindingDB>
http://www.bindingdb.org/jsp/dbsearch/PrimarySearch_ki.jsp?energyterm=kJ/mole&tag=r21&monomerid=50067911&enzyme=Beta-lactamase&column=ki&startPg=0&Increment=50&submit=Search

> <Ligand HET ID in PDB>


> <PDB ID(s) for Ligand-Target Complex>


> <PubChem CID of Ligand>
2734373

> <PubChem SID of Ligand>
103962337

> <ChEBI ID of Ligand>


> <ChEMBL ID of Ligand>
CHEMBL334931

> <DrugBank ID of Ligand>


> <IUPHAR_GRAC ID of Ligand>


> <KEGG ID of Ligand>


> <ZINC ID of Ligand>


> <Number of Protein Chains in Target (bigger than 1 implies a multichain complex)>
1

> <BindingDB Target Chain Sequence>
MFKTTLCALLITASCSTFAAPQQINDIVHRTITPLIEQQKIPGMAVAVIYQGKPYYFTWGYADIAKKQPVTQQTLFELGSVSKTFTGVLGGDAIARGEIKLSDPTTKYWPELTAKQWNGITLLHLATYTAGGLPLQVPDEVKSSSDLLRFYQNWQPAWAPGTQRLYANSSIGLFGALAVKPSGLSFEQAMQTRVFQPLKLNHTWINVPPAEEKNYAWGYREGKAVHVSPGALDAEAYGVKSTIEDMARWVQSNLKPLDINEKTLQQGIQLAQSRYWQTGDMYQGLGWEMLDWPVNPDSIINGSDNKIALAARPVKAITPPTPAVRASWVHKTGATGGFGSYVAFIPEKELGIVMLANKNYPNPARVDAAWQILNALQ

> <PDB ID(s) of Target Chain>
1C3B,1FCO,1FSW,1FSY,1GA9,1IEL,1IEM,1KDS,1KDW,1KE0,1KE3,1KE4,1KVM,1L2S,1LL5,1LL9,1LLB,1MXO,1MY8,1XGI,1XGJ,2BLS,2HDQ,2HDR,2HDS,2HDU,2I72,2P9V,2PU2,2PU4,2R9W,2R9X,2RCX,3BLS,3BM6,3GQZ,3GR2,3GRJ,3GSG,3GTC,3GV9,3GVB,3O86,3O87,3O88,4E3I,4E3J,4E3K,4E3L,4E3M,4E3N,4E3O,4JXG,4JXS,4JXV,4JXW,4KG2,4KZ3,4KZ4,4KZ5,4KZ6,4KZ7,4KZ8,4KZ9,4KZA,4KZB,4LV0,4LV1,4LV2,4LV3,4OKP,4OLD,4OLG,6DPT,6DPX,6DPY,6DPZ,6T35,6T3D,6T5Y,6T7L,6TBW,6TPM,6WGQ,6YEN,6YEO,6YPD

> <UniProt (SwissProt) Recommended Name of Target Chain>
Beta-lactamase

> <UniProt (SwissProt) Entry Name of Target Chain>
AMPC_ECOLI

> <UniProt (SwissProt) Primary ID of Target Chain>
P00811

> <UniProt (SwissProt) Secondary ID(s) of Target Chain>
Q2M6F2

> <UniProt (SwissProt) Alternative ID(s) of Target Chain>


> <UniProt (TrEMBL) Submitted Name of Target Chain>


> <UniProt (TrEMBL) Entry Name of Target Chain>


> <UniProt (TrEMBL) Primary ID of Target Chain>


> <UniProt (TrEMBL) Secondary ID(s) of Target Chain>


> <UniProt (TrEMBL) Alternative ID(s) of Target Chain>


$$$$

  Mrv0541 11231414252D          

 28 30  0  0  0  0            999 V2000
    1.3651    0.5848    0.0000 C   0  0  0  0  0  0  0  0  0  0  0  0
    0.7817    1.1682    0.0000 O   0  0  0  0  0  0  0  0  0  0  0  0
    2.1901    0.5848    0.0000 N   0  0  0  0  0  0  0  0  0  0  0  0
    2.1901   -0.2402    0.0000 C   0  0  2  0  0  0  0  0  0  0  0  0
    2.9046   -0.6527    0.0000 S   0  0  0  0  0  0  0  0  0  0  0  0
    3.6190   -0.2402    0.0000 C   0  0  0  0  0  0  0  0  0  0  0  0
    3.6190    0.5848    0.0000 C   0  0  0  0  0  0  0  0  0  0  0  0
    2.9046    0.9973    0.0000 C   0  0  0  0  0  0  0  0  0  0  0  0
    4.3335    0.9973    0.0000 C   0  0  0  0  0  0  0  0  0  0  0  0
    2.9046    1.8223    0.0000 C   0  0  0  0  0  0  0  0  0  0  0  0
    3.6190    2.2348    0.0000 O   0  0  0  0  0  0  0  0  0  0  0  0
    2.1901    2.2348    0.0000 O   0  0  0  0  0  0  0  0  0  0  0  0
    1.3651   -0.2402    0.0000 C   0  0  1  0  0  0  0  0  0  0  0  0
    0.5629   -0.4328    0.0000 O   0  0  0  0  0  0  0  0  0  0  0  0
   -0.0050    0.1656    0.0000 C   0  0  0  0  0  0  0  0  0  0  0  0
    1.1725   -1.0424    0.0000 N   0  0  0  0  0  0  0  0  0  0  0  0
    0.3815   -1.2767    0.0000 C   0  0  0  0  0  0  0  0  0  0  0  0
   -0.2169   -0.7088    0.0000 O   0  0  0  0  0  0  0  0  0  0  0  0
    0.1889   -2.0789    0.0000 C   0  0  0  0  0  0  0  0  0  0  0  0
   -0.6021   -2.3132    0.0000 C   0  0  0  0  0  0  0  0  0  0  0  0
   -0.8775   -3.0909    0.0000 S   0  0  0  0  0  0  0  0  0  0  0  0
   -1.7022   -3.0693    0.0000 C   0  0  0  0  0  0  0  0  0  0  0  0
   -1.9366   -2.2783    0.0000 C   0  0  0  0  0  0  0  0  0  0  0  0
   -1.2567   -1.8110    0.0000 C   0  0  0  0  0  0  0  0  0  0  0  0
    4.3335    1.8223    0.0000 O   0  0  0  0  0  0  0  0  0  0  0  0
    5.0480    2.2348    0.0000 C   0  0  0  0  0  0  0  0  0  0  0  0
    5.0480    3.0598    0.0000 O   0  0  0  0  0  0  0  0  0  0  0  0
    5.7625    1.8223    0.0000 N   0  0  0  0  0  0  0  0  0  0  0  0
  1  2  2  0  0  0  0
  1  3  1  0  0  0  0
 13  1  1  0  0  0  0
  4  3  1  6  0  0  0
  8  3  1  0  0  0  0
  4  5  1  0  0  0  0
  4 13  1  0  0  0  0
  6  5  1  0  0  0  0
  7  6  1  0  0  0  0
  7  8  2  0  0  0  0
  7  9  1  0  0  0  0
  8 10  1  0  0  0  0
  9 25  1  0  0  0  0
 10 11  2  0  0  0  0
 10 12  1  0  0  0  0
 13 14  1  1  0  0  0
 13 16  1  6  0  0  0
 15 14  1  0  0  0  0
 17 16  1  0  0  0  0
 17 18  2  0  0  0  0
 17 19  1  0  0  0  0
 19 20  1  0  0  0  0
 20 21  1  0  0  0  0
 20 24  2  0  0  0  0
 22 21  1  0  0  0  0
 22 23  2  0  0  0  0
 23 24  1  0  0  0  0
 26 25  1  0  0  0  0
 26 27  2  0  0  0  0
 26 28  1  0  0  0  0
M  END
> <From>
www.bindingDB.org

> <BindingDB Reactant_set_id>
50619891

> <Ligand InChI>
InChI=1S/C16H17N3O7S2/c1-25-16(18-10(20)5-9-3-2-4-27-9)13(23)19-11(12(21)22)8(6-26-15(17)24)7-28-14(16)19/h2-4,14H,5-7H2,1H3,(H2,17,24)(H,18,20)(H,21,22)/t14-,16+/m1/s1

> <Ligand InChI Key>
WZOZEZRFJCJXNZ-ZBFHGGJFSA-N

> <BindingDB MonomerID>
50335563

> <BindingDB Ligand Name>
(6R,7R)-3-(carbamoyloxymethyl)-7-methoxy-8-oxo-7-(2-(thiophen-2-yl)acetamido)-5-thia-1-aza-bicyclo[4.2.0]oct-2-ene-2-carboxylic acid::(6R,7S)-3-(carbamoyloxymethyl)-7-methoxy-8-oxo-7-(2-(thiophen-2-yl)acetamido)-5-thia-1-aza-bicyclo[4.2.0]oct-2-ene-2-carboxylic acid::(6R,7S)-3-Carbamoyloxymethyl-7-methoxy-8-oxo-7-(2-thiophen-2-yl-acetylamino)-5-thia-1-aza-bicyclo[4.2.0]oct-2-ene-2-carboxylic acid::(6R,7S)-4-(carbamoyloxymethyl)-7-methoxy-8-oxo-7-(2-(thiophen-2-yl)acetamido)-5-thia-1-aza-bicyclo[4.2.0]oct-2-ene-2-carboxylic acid::(6S,7R)-3-(carbamoyloxymethyl)-7-methoxy-8-oxo-7-(2-(thiophen-2-yl)acetamido)-5-thia-1-aza-bicyclo[4.2.0]oct-2-ene-2-carboxylic acid::(6S,7R)-4-(carbamoyloxymethyl)-7-methoxy-8-oxo-7-(2-(thiophen-2-yl)acetamido)-5-thia-1-aza-bicyclo[4.2.0]oct-2-ene-2-carboxylic acid::3-Carbamoyloxymethyl-7-methoxy-8-oxo-7-(2-thiophen-2-yl-acetylamino)-5-thia-1-aza-bicyclo[4.2.0]oct-2-ene-2-carboxylic acid::3-Carbamoyloxymethyl-7-methoxy-8-oxo-7-(2-thiophen-2-yl-acetylamino)-5-thia-1-aza-bicyclo[4.2.0]oct-2-ene-2-carboxylic acid anion::3-Carbamoyloxymethyl-7-methoxy-8-oxo-7-(2-thiophen-3-yl-acetylamino)-5-thia-1-aza-bicyclo[4.2.0]oct-2-ene-2-carboxylic acid anion::CHEMBL996::Cefoxitin::Cefoxotin::Cenomycin::Mefoxin::Mefoxitin

> <Target Name>
Beta-lactamase

> <Target Source Organism According to Curator or DataSource>
Acinetobacter baumannii

> <Ki (nM)>
 500

> <IC50 (nM)>


> <Kd (nM)>


> <EC50 (nM)>


> <kon (M-1-s-1)>


> <koff (s-1)>


> <pH>


> <Temp C>


> <Curation/DataSource>
ChEMBL

> <Article DOI>
10.1128/AAC.00050-10

> <BindingDB Entry DOI>
10.7270/Q2348KM2

> <PMID>
20547808

> <PubChem AID>


> <Patent Number>


> <Authors>
Rodriguez-Martinez, JM; Nordmann, P; Ronco, E; Poirel, L

> <Institution>
Paris-Sud University

> <Link to Ligand in BindingDB>
http://www.bindingdb.org/bind/chemsearch/marvin/MolStructure.jsp?monomerid=50335563

> <Link to Ligand-Target Pair in BindingDB>
http://www.bindingdb.org/jsp/dbsearch/PrimarySearch_ki.jsp?energyterm=kJ/mole&tag=pol&polymerid=50004684&target=Beta-lactamase&column=ki&startPg=0&Increment=50&submit=Search

> <Link to Ligand-Target Pair in BindingDB>
http://www.bindingdb.org/jsp/dbsearch/PrimarySearch_ki.jsp?energyterm=kJ/mole&tag=r21&monomerid=50335563&enzyme=Beta-lactamase&column=ki&startPg=0&Increment=50&submit=Search

> <Ligand HET ID in PDB>
CFX

> <PDB ID(s) for Ligand-Target Complex>
4KOW

> <PubChem CID of Ligand>
441199

> <PubChem SID of Ligand>
125085665

> <ChEBI ID of Ligand>
209807

> <ChEMBL ID of Ligand>
CHEMBL996

> <DrugBank ID of Ligand>
DB01331

> <IUPHAR_GRAC ID of Ligand>


> <KEGG ID of Ligand>
C06887

> <ZINC ID of Ligand>
ZINC03830449

> <Number of Protein Chains in Target (bigger than 1 implies a multichain complex)>
1

> <BindingDB Target Chain Sequence>
MRFKKISCLLLSPLFIFSTSIYAGNTPKDQEIKKLVDQNFKPLLEKYDVPGMAVGVIQNNKKYEMYYGLQSVQDKKAVNRSTIFELGSVSKLFTATAGGYAKNKGKISFDDTPGKYWKELKNTPIDQVNLLQLATYTSGNLALQFPDEVQTDQQVLTFFKDWQPKNPIGEYRQYSNPSIGLFGKVVALSMNKPFDQVLEKTIFPALGLKHSYVNVPKTQMQNYAFGYNQENQPIRVNPGPLDAPAYGVKSTLPDMLSFIHANLNPQKYPADIQRAINETHQGFYQVNTMYQALGWEEFSYPATLQTLLDSNSEQIVMKPNKVTAISKEPSVKMYHKTGSTNGFGTYVVFIPKENIGLVMLTNKRIPNEERIKAAYAVLDAIKK

> <PDB ID(s) of Target Chain>
4QD4,8CUP,8CUQ,8FQN,8FQO,8FQV,8FQW

> <UniProt (SwissProt) Recommended Name of Target Chain>


> <UniProt (SwissProt) Entry Name of Target Chain>


> <UniProt (SwissProt) Primary ID of Target Chain>


> <UniProt (SwissProt) Secondary ID(s) of Target Chain>


> <UniProt (SwissProt) Alternative ID(s) of Target Chain>


> <UniProt (TrEMBL) Submitted Name of Target Chain>
Beta-lactamase

> <UniProt (TrEMBL) Entry Name of Target Chain>
D6NSM8_ACIBA

> <UniProt (TrEMBL) Primary ID of Target Chain>
D6NSM8

> <UniProt (TrEMBL) Secondary ID(s) of Target Chain>


> <UniProt (TrEMBL) Alternative ID(s) of Target Chain>


$$$$

  Mrv0541 11191401012D          

 30 32  0  0  0  0            999 V2000
   -0.3830    1.8857    0.0000 C   0  0  0  0  0  0  0  0  0  0  0  0
   -1.0975    1.4732    0.0000 C   0  0  0  0  0  0  0  0  0  0  0  0
   -1.0975    0.6482    0.0000 C   0  0  0  0  0  0  0  0  0  0  0  0
   -0.3830    0.2357    0.0000 C   0  0  0  0  0  0  0  0  0  0  0  0
    0.3314    0.6482    0.0000 C   0  0  0  0  0  0  0  0  0  0  0  0
    0.3314    1.4732    0.0000 C   0  0  0  0  0  0  0  0  0  0  0  0
   -0.3830   -0.5893    0.0000 B   0  0  0  0  0  0  0  0  0  0  0  0
    0.3314   -1.0018    0.0000 O   0  0  0  0  0  0  0  0  0  0  0  0
   -1.0975   -1.0018    0.0000 O   0  0  0  0  0  0  0  0  0  0  0  0
    1.0459    1.8857    0.0000 N   0  0  0  0  0  0  0  0  0  0  0  0
    1.0459    2.7107    0.0000 S   0  0  0  0  0  0  0  0  0  0  0  0
    1.6293    3.2941    0.0000 C   0  0  0  0  0  0  0  0  0  0  0  0
    0.6334    3.4252    0.0000 O   0  0  0  0  0  0  0  0  0  0  0  0
    1.6951    2.2017    0.0000 O   0  0  0  0  0  0  0  0  0  0  0  0
    2.6397    4.3045    0.0000 C   0  0  0  0  0  0  0  0  0  0  0  0
    1.8428    4.0910    0.0000 C   0  0  0  0  0  0  0  0  0  0  0  0
    2.2126    2.7107    0.0000 C   0  0  0  0  0  0  0  0  0  0  0  0
    3.0095    2.9242    0.0000 C   0  0  0  0  0  0  0  0  0  0  0  0
    3.2230    3.7211    0.0000 C   0  0  0  0  0  0  0  0  0  0  0  0
    4.0199    3.9347    0.0000 N   0  0  0  0  0  0  0  0  0  0  0  0
    4.2335    4.7315    0.0000 N   0  0  0  0  0  0  0  0  0  0  0  0
    5.0303    4.9451    0.0000 C   0  0  0  0  0  0  0  0  0  0  0  0
    5.2439    5.7420    0.0000 C   0  0  0  0  0  0  0  0  0  0  0  0
    5.6137    4.3617    0.0000 C   0  0  0  0  0  0  0  0  0  0  0  0
    6.4106    4.5752    0.0000 C   0  0  0  0  0  0  0  0  0  0  0  0
    6.6241    5.3721    0.0000 C   0  0  0  0  0  0  0  0  0  0  0  0
    6.0408    5.9555    0.0000 C   0  0  0  0  0  0  0  0  0  0  0  0
    7.4210    5.5856    0.0000 N   0  0  0  0  0  0  0  0  0  0  0  0
    8.0044    5.0023    0.0000 C   0  0  0  0  0  0  0  0  0  0  0  0
    7.6345    6.3825    0.0000 C   0  0  0  0  0  0  0  0  0  0  0  0
  1  2  2  0  0  0  0
  2  3  1  0  0  0  0
  3  4  2  0  0  0  0
  4  5  1  0  0  0  0
  5  6  2  0  0  0  0
  1  6  1  0  0  0  0
  4  7  1  0  0  0  0
  7  8  1  0  0  0  0
  7  9  1  0  0  0  0
  6 10  1  0  0  0  0
 10 11  1  0  0  0  0
 11 12  1  0  0  0  0
 11 13  2  0  0  0  0
 11 14  2  0  0  0  0
 16 12  2  0  0  0  0
 12 17  1  0  0  0  0
 15 16  1  0  0  0  0
 17 18  2  0  0  0  0
 18 19  1  0  0  0  0
 15 19  2  0  0  0  0
 19 20  1  0  0  0  0
 20 21  2  0  0  0  0
 21 22  1  0  0  0  0
 23 22  2  0  0  0  0
 22 24  1  0  0  0  0
 24 25  2  0  0  0  0
 25 26  1  0  0  0  0
 26 27  2  0  0  0  0
 23 27  1  0  0  0  0
 26 28  1  0  0  0  0
 28 29  1  0  0  0  0
 28 30  1  0  0  0  0
M  END
> <From>
www.bindingDB.org

> <BindingDB Reactant_set_id>
74807

> <Ligand InChI>
InChI=1S/C20H21BN4O4S/c1-25(2)19-10-6-16(7-11-19)22-23-17-8-12-20(13-9-17)30(28,29)24-18-5-3-4-15(14-18)21(26)27/h3-14,24,26-27H,1-2H3/b23-22+

> <Ligand InChI Key>
INSFOQBGHTWNLJ-GHVJWSGMSA-N

> <BindingDB MonomerID>
39821

> <BindingDB Ligand Name>
Amide and sulfonamide derivatives, 5

> <Target Name>
Beta-lactamase

> <Target Source Organism According to Curator or DataSource>
Escherichia coli

> <Ki (nM)>
 5.3e+2

> <IC50 (nM)>


> <Kd (nM)>


> <EC50 (nM)>


> <kon (M-1-s-1)>


> <koff (s-1)>


> <pH>
7

> <Temp C>


> <Curation/DataSource>
Curated from the literature by BindingDB

> <Article DOI>
10.1016/S1074-5521(01)00034-5

> <BindingDB Entry DOI>
10.7270/Q27M06BZ

> <PMID>
11410378

> <PubChem AID>
aid1799472

> <Patent Number>


> <Authors>
Tondi, D; Powers, RA; Caselli, E; Negri, MC; Bl&aacute;zquez, J; Costi, MP; Shoichet, BK

> <Institution>
Northwestern University

> <Link to Ligand in BindingDB>
http://www.bindingdb.org/bind/chemsearch/marvin/MolStructure.jsp?monomerid=39821

> <Link to Ligand-Target Pair in BindingDB>
http://www.bindingdb.org/jsp/dbsearch/PrimarySearch_ki.jsp?energyterm=kJ/mole&tag=pol&polymerid=4401&target=Beta-lactamase&column=ki&startPg=0&Increment=50&submit=Search

> <Link to Ligand-Target Pair in BindingDB>
http://www.bindingdb.org/jsp/dbsearch/PrimarySearch_ki.jsp?energyterm=kJ/mole&tag=r21&monomerid=39821&enzyme=Beta-lactamase&column=ki&startPg=0&Increment=50&submit=Search

> <Ligand HET ID in PDB>


> <PDB ID(s) for Ligand-Target Complex>


> <PubChem CID of Ligand>
52939992

> <PubChem SID of Ligand>
123080129

> <ChEBI ID of Ligand>


> <ChEMBL ID of Ligand>


> <DrugBank ID of Ligand>


> <IUPHAR_GRAC ID of Ligand>


> <KEGG ID of Ligand>


> <ZINC ID of Ligand>


> <Number of Protein Chains in Target (bigger than 1 implies a multichain complex)>
1

> <BindingDB Target Chain Sequence>
MFKTTLCALLITASCSTFAAPQQINDIVHRTITPLIEQQKIPGMAVAVIYQGKPYYFTWGYADIAKKQPVTQQTLFELGSVSKTFTGVLGGDAIARGEIKLSDPTTKYWPELTAKQWNGITLLHLATYTAGGLPLQVPDEVKSSSDLLRFYQNWQPAWAPGTQRLYANSSIGLFGALAVKPSGLSFEQAMQTRVFQPLKLNHTWINVPPAEEKNYAWGYREGKAVHVSPGALDAEAYGVKSTIEDMARWVQSNLKPLDINEKTLQQGIQLAQSRYWQTGDMYQGLGWEMLDWPVNPDSIINGSDNKIALAARPVKAITPPTPAVRASWVHKTGATGGFGSYVAFIPEKELGIVMLANKNYPNPARVDAAWQILNALQ

> <PDB ID(s) of Target Chain>
1C3B,1FCO,1FSW,1FSY,1GA9,1IEL,1IEM,1KDS,1KDW,1KE0,1KE3,1KE4,1KVM,1L2S,1LL5,1LL9,1LLB,1MXO,1MY8,1XGI,1XGJ,2BLS,2HDQ,2HDR,2HDS,2HDU,2I72,2P9V,2PU2,2PU4,2R9W,2R9X,2RCX,3BLS,3BM6,3GQZ,3GR2,3GRJ,3GSG,3GTC,3GV9,3GVB,3O86,3O87,3O88,4E3I,4E3J,4E3K,4E3L,4E3M,4E3N,4E3O,4JXG,4JXS,4JXV,4JXW,4KG2,4KZ3,4KZ4,4KZ5,4KZ6,4KZ7,4KZ8,4KZ9,4KZA,4KZB,4LV0,4LV1,4LV2,4LV3,4OKP,4OLD,4OLG,6DPT,6DPX,6DPY,6DPZ,6T35,6T3D,6T5Y,6T7L,6TBW,6TPM,6WGQ,6YEN,6YEO,6YPD

> <UniProt (SwissProt) Recommended Name of Target Chain>
Beta-lactamase

> <UniProt (SwissProt) Entry Name of Target Chain>
AMPC_ECOLI

> <UniProt (SwissProt) Primary ID of Target Chain>
P00811

> <UniProt (SwissProt) Secondary ID(s) of Target Chain>
Q2M6F2

> <UniProt (SwissProt) Alternative ID(s) of Target Chain>


> <UniProt (TrEMBL) Submitted Name of Target Chain>


> <UniProt (TrEMBL) Entry Name of Target Chain>


> <UniProt (TrEMBL) Primary ID of Target Chain>


> <UniProt (TrEMBL) Secondary ID(s) of Target Chain>


> <UniProt (TrEMBL) Alternative ID(s) of Target Chain>


$$$$

  Mrv0541 01081602572D          

 17 18  0  0  0  0            999 V2000
    6.8062   -0.2062    0.0000 C   0  0  1  0  0  0  0  0  0  0  0  0
    7.6312   -0.2062    0.0000 C   0  0  2  0  0  0  0  0  0  0  0  0
    6.8062   -1.0312    0.0000 C   0  0  0  0  0  0  0  0  0  0  0  0
    7.6312   -1.0312    0.0000 N   0  0  0  0  0  0  0  0  0  0  0  0
    8.4158   -1.2862    0.0000 C   0  0  2  0  0  0  0  0  0  0  0  0
    8.9008   -0.6188    0.0000 C   0  0  0  0  0  0  0  0  0  0  0  0
    8.4159    0.0487    0.0000 S   0  0  0  0  0  0  0  0  0  0  0  0
    6.2229    0.3771    0.0000 C   0  0  0  0  0  0  0  0  0  0  0  0
    6.4364    1.1740    0.0000 O   0  0  0  0  0  0  0  0  0  0  0  0
    6.2229   -1.6146    0.0000 O   0  0  0  0  0  0  0  0  0  0  0  0
    8.6707   -2.0708    0.0000 C   0  0  0  0  0  0  0  0  0  0  0  0
    9.6152   -1.0313    0.0000 C   0  0  0  0  0  0  0  0  0  0  0  0
    9.6152   -0.2063    0.0000 C   0  0  0  0  0  0  0  0  0  0  0  0
    8.2024    0.8456    0.0000 O   0  0  0  0  0  0  0  0  0  0  0  0
    9.1304    0.4612    0.0000 O   0  0  0  0  0  0  0  0  0  0  0  0
    9.4777   -2.2424    0.0000 O   0  5  0  0  0  0  0  0  0  0  0  0
    8.1186   -2.6839    0.0000 O   0  0  0  0  0  0  0  0  0  0  0  0
  1  2  1  0  0  0  0
  1  3  1  0  0  0  0
  3  4  1  0  0  0  0
  2  7  1  0  0  0  0
  2  4  1  1  0  0  0
  5  4  1  0  0  0  0
  5  6  1  0  0  0  0
  6  7  1  0  0  0  0
  1  8  1  1  0  0  0
  8  9  1  0  0  0  0
  3 10  2  0  0  0  0
  5 11  1  6  0  0  0
  6 12  1  0  0  0  0
  6 13  1  0  0  0  0
  7 14  2  0  0  0  0
  7 15  2  0  0  0  0
 11 16  1  0  0  0  0
 11 17  2  0  0  0  0
M  CHG  1  16  -1
M  END
> <From>
www.bindingDB.org

> <BindingDB Reactant_set_id>
293327

> <Ligand InChI>
InChI=1S/C9H13NO6S/c1-9(2)5(8(13)14)10-6(12)4(3-11)7(10)17(9,15)16/h4-5,7,11H,3H2,1-2H3,(H,13,14)/p-1/t4-,5+,7-/m1/s1

> <Ligand InChI Key>
ODGTYAIFNCCEHW-JCGDXUMPSA-M

> <BindingDB MonomerID>
152696

> <BindingDB Ligand Name>
PSR-3-283A

> <Target Name>
Beta-lactamase SHV-1

> <Target Source Organism According to Curator or DataSource>


> <Ki (nM)>
 5.6e+2

> <IC50 (nM)>
 3.2e+2

> <Kd (nM)>


> <EC50 (nM)>


> <kon (M-1-s-1)>


> <koff (s-1)>


> <pH>
7.4

> <Temp C>


> <Curation/DataSource>
Curated from the literature by BindingDB

> <Article DOI>
10.1021/bi501197t

> <BindingDB Entry DOI>
10.7270/Q2736PNW

> <PMID>
25536850

> <PubChem AID>
aid1801066

> <Patent Number>


> <Authors>
Che, T; Rodkey, EA; Bethel, CR; Shanmugam, S; Ding, Z; Pusztai-Carey, M; Nottingham, M; Chai, W; Buynak, JD; Bonomo, RA; van den Akker, F; Carey, PR

> <Institution>
Case Western Reserve University

> <Link to Ligand in BindingDB>
http://www.bindingdb.org/bind/chemsearch/marvin/MolStructure.jsp?monomerid=152696

> <Link to Ligand-Target Pair in BindingDB>
http://www.bindingdb.org/jsp/dbsearch/PrimarySearch_ki.jsp?energyterm=kJ/mole&tag=pol&polymerid=6997&target=Beta-lactamase+SHV-1&column=ki&startPg=0&Increment=50&submit=Search

> <Link to Ligand-Target Pair in BindingDB>
http://www.bindingdb.org/jsp/dbsearch/PrimarySearch_ki.jsp?energyterm=kJ/mole&tag=r21&monomerid=152696&enzyme=Beta-lactamase+SHV-1&column=ki&startPg=0&Increment=50&submit=Search

> <Ligand HET ID in PDB>


> <PDB ID(s) for Ligand-Target Complex>


> <PubChem CID of Ligand>
91937850

> <PubChem SID of Ligand>
252826946

> <ChEBI ID of Ligand>


> <ChEMBL ID of Ligand>


> <DrugBank ID of Ligand>


> <IUPHAR_GRAC ID of Ligand>


> <KEGG ID of Ligand>


> <ZINC ID of Ligand>


> <Number of Protein Chains in Target (bigger than 1 implies a multichain complex)>
1

> <BindingDB Target Chain Sequence>
MRYIRLCIISLLATLPLAVHASPQPLEQIKLSESQLSGRVGMIEMDLASGRTLTAWRADERFPMMSTFKV
VLCGAVLARVDAGDEQLERKIHYRQQDLVDYSPVSEKHLADGMTVGELCAAAITMSDNSAANLLLATVGG
PAGLTAFLRQIGDNVTRLDRWETELNEALPGDARDTTTPASMAATLRKLLTSQRLSARSQRQLLQWMVDD
RVAGPLIRSVLPAGWFIADKTGAGERGARGIVALLGPNNKAERIVVIYLRDTPASMAERNQQIAGIGAAL
IEHWQR

> <PDB ID(s) of Target Chain>
1ONG,1Q2P,1SHV,1VM1,2G2U,2H5S,2ZD8,3C4O,3C4P,3D4F,3MKE,3MKF,3MXR,3MXS,4FH4,4GD6,4GD8,4GDB,4JPM,4MBF,4R3B,4ZAM,5EE8

> <UniProt (SwissProt) Recommended Name of Target Chain>
Beta-lactamase SHV-1

> <UniProt (SwissProt) Entry Name of Target Chain>
BLA1_KLEPN

> <UniProt (SwissProt) Primary ID of Target Chain>
P0AD64

> <UniProt (SwissProt) Secondary ID(s) of Target Chain>
O07941 P14557 P23982

> <UniProt (SwissProt) Alternative ID(s) of Target Chain>


> <UniProt (TrEMBL) Submitted Name of Target Chain>


> <UniProt (TrEMBL) Entry Name of Target Chain>


> <UniProt (TrEMBL) Primary ID of Target Chain>


> <UniProt (TrEMBL) Secondary ID(s) of Target Chain>


> <UniProt (TrEMBL) Alternative ID(s) of Target Chain>


$$$$

  Mrv0541 11191401012D          

 14 14  0  0  0  0            999 V2000
   -2.0920    2.6813    0.0000 C   0  0  0  0  0  0  0  0  0  0  0  0
   -1.3775    3.0938    0.0000 C   0  0  0  0  0  0  0  0  0  0  0  0
   -0.6630    2.6813    0.0000 N   0  0  0  0  0  0  0  0  0  0  0  0
   -1.3775    3.9188    0.0000 O   0  0  0  0  0  0  0  0  0  0  0  0
    0.0514    3.0938    0.0000 C   0  0  0  0  0  0  0  0  0  0  0  0
    0.7659    2.6813    0.0000 B   0  0  0  0  0  0  0  0  0  0  0  0
    1.4804    3.0938    0.0000 O   0  0  0  0  0  0  0  0  0  0  0  0
    0.7659    1.8563    0.0000 O   0  0  0  0  0  0  0  0  0  0  0  0
   -2.8064    3.0938    0.0000 C   0  0  0  0  0  0  0  0  0  0  0  0
   -3.5209    4.3313    0.0000 C   0  0  0  0  0  0  0  0  0  0  0  0
   -4.2354    3.9188    0.0000 C   0  0  0  0  0  0  0  0  0  0  0  0
   -4.2354    3.0938    0.0000 C   0  0  0  0  0  0  0  0  0  0  0  0
   -3.5209    2.6812    0.0000 C   0  0  0  0  0  0  0  0  0  0  0  0
   -2.8064    3.9188    0.0000 C   0  0  0  0  0  0  0  0  0  0  0  0
  1  2  1  0  0  0  0
  2  3  1  0  0  0  0
  2  4  2  0  0  0  0
  3  5  1  0  0  0  0
  5  6  1  0  0  0  0
  6  7  1  0  0  0  0
  6  8  1  0  0  0  0
  1  9  1  0  0  0  0
 13  9  2  0  0  0  0
  9 14  1  0  0  0  0
 10 11  1  0  0  0  0
 11 12  2  0  0  0  0
 12 13  1  0  0  0  0
 10 14  2  0  0  0  0
M  END
> <From>
www.bindingDB.org

> <BindingDB Reactant_set_id>
74783

> <Ligand InChI>
InChI=1S/C9H12BNO3/c12-9(11-7-10(13)14)6-8-4-2-1-3-5-8/h1-5,13-14H,6-7H2,(H,11,12)

> <Ligand InChI Key>
WPZJZIUTEZTIJI-UHFFFAOYSA-N

> <BindingDB MonomerID>
39809

> <BindingDB Ligand Name>
Acylglycineboronic acid, 6

> <Target Name>
Beta-lactamase

> <Target Source Organism According to Curator or DataSource>
Escherichia coli

> <Ki (nM)>
 5.7e+2

> <IC50 (nM)>


> <Kd (nM)>


> <EC50 (nM)>


> <kon (M-1-s-1)>


> <koff (s-1)>


> <pH>
7

> <Temp C>


> <Curation/DataSource>
Curated from the literature by BindingDB

> <Article DOI>
10.1016/S1074-5521(00)00052-1

> <BindingDB Entry DOI>
10.7270/Q2CC0Z3R

> <PMID>
11182316

> <PubChem AID>
aid1799471

> <Patent Number>


> <Authors>
Caselli, E; Powers, RA; Blasczcak, LC; Wu, CY; Prati, F; Shoichet, BK

> <Institution>
Northwestern University

> <Link to Ligand in BindingDB>
http://www.bindingdb.org/bind/chemsearch/marvin/MolStructure.jsp?monomerid=39809

> <Link to Ligand-Target Pair in BindingDB>
http://www.bindingdb.org/jsp/dbsearch/PrimarySearch_ki.jsp?energyterm=kJ/mole&tag=pol&polymerid=4401&target=Beta-lactamase&column=ki&startPg=0&Increment=50&submit=Search

> <Link to Ligand-Target Pair in BindingDB>
http://www.bindingdb.org/jsp/dbsearch/PrimarySearch_ki.jsp?energyterm=kJ/mole&tag=r21&monomerid=39809&enzyme=Beta-lactamase&column=ki&startPg=0&Increment=50&submit=Search

> <Ligand HET ID in PDB>
FP5

> <PDB ID(s) for Ligand-Target Complex>
2Y55,3ZVW

> <PubChem CID of Ligand>
9920615

> <PubChem SID of Ligand>
123080117

> <ChEBI ID of Ligand>


> <ChEMBL ID of Ligand>


> <DrugBank ID of Ligand>


> <IUPHAR_GRAC ID of Ligand>


> <KEGG ID of Ligand>


> <ZINC ID of Ligand>


> <Number of Protein Chains in Target (bigger than 1 implies a multichain complex)>
1

> <BindingDB Target Chain Sequence>
MFKTTLCALLITASCSTFAAPQQINDIVHRTITPLIEQQKIPGMAVAVIYQGKPYYFTWGYADIAKKQPVTQQTLFELGSVSKTFTGVLGGDAIARGEIKLSDPTTKYWPELTAKQWNGITLLHLATYTAGGLPLQVPDEVKSSSDLLRFYQNWQPAWAPGTQRLYANSSIGLFGALAVKPSGLSFEQAMQTRVFQPLKLNHTWINVPPAEEKNYAWGYREGKAVHVSPGALDAEAYGVKSTIEDMARWVQSNLKPLDINEKTLQQGIQLAQSRYWQTGDMYQGLGWEMLDWPVNPDSIINGSDNKIALAARPVKAITPPTPAVRASWVHKTGATGGFGSYVAFIPEKELGIVMLANKNYPNPARVDAAWQILNALQ

> <PDB ID(s) of Target Chain>
1C3B,1FCO,1FSW,1FSY,1GA9,1IEL,1IEM,1KDS,1KDW,1KE0,1KE3,1KE4,1KVM,1L2S,1LL5,1LL9,1LLB,1MXO,1MY8,1XGI,1XGJ,2BLS,2HDQ,2HDR,2HDS,2HDU,2I72,2P9V,2PU2,2PU4,2R9W,2R9X,2RCX,3BLS,3BM6,3GQZ,3GR2,3GRJ,3GSG,3GTC,3GV9,3GVB,3O86,3O87,3O88,4E3I,4E3J,4E3K,4E3L,4E3M,4E3N,4E3O,4JXG,4JXS,4JXV,4JXW,4KG2,4KZ3,4KZ4,4KZ5,4KZ6,4KZ7,4KZ8,4KZ9,4KZA,4KZB,4LV0,4LV1,4LV2,4LV3,4OKP,4OLD,4OLG,6DPT,6DPX,6DPY,6DPZ,6T35,6T3D,6T5Y,6T7L,6TBW,6TPM,6WGQ,6YEN,6YEO,6YPD

> <UniProt (SwissProt) Recommended Name of Target Chain>
Beta-lactamase

> <UniProt (SwissProt) Entry Name of Target Chain>
AMPC_ECOLI

> <UniProt (SwissProt) Primary ID of Target Chain>
P00811

> <UniProt (SwissProt) Secondary ID(s) of Target Chain>
Q2M6F2

> <UniProt (SwissProt) Alternative ID(s) of Target Chain>


> <UniProt (TrEMBL) Submitted Name of Target Chain>


> <UniProt (TrEMBL) Entry Name of Target Chain>


> <UniProt (TrEMBL) Primary ID of Target Chain>


> <UniProt (TrEMBL) Secondary ID(s) of Target Chain>


> <UniProt (TrEMBL) Alternative ID(s) of Target Chain>


$$$$

  Mrv0541 11221409162D          

 21 23  0  0  0  0            999 V2000
    9.2816  -13.2234    0.0000 C   0  0  0  0  0  0  0  0  0  0  0  0
    9.2804  -14.0454    0.0000 C   0  0  0  0  0  0  0  0  0  0  0  0
    9.9984  -14.4578    0.0000 C   0  0  0  0  0  0  0  0  0  0  0  0
    9.9966  -12.8112    0.0000 C   0  0  0  0  0  0  0  0  0  0  0  0
   10.7068  -13.2198    0.0000 C   0  0  0  0  0  0  0  0  0  0  0  0
   10.7071  -14.0455    0.0000 C   0  0  0  0  0  0  0  0  0  0  0  0
   11.4924  -14.2976    0.0000 S   0  0  0  0  0  0  0  0  0  0  0  0
   11.9717  -13.6385    0.0000 C   0  0  0  0  0  0  0  0  0  0  0  0
   11.4920  -12.9673    0.0000 C   0  0  0  0  0  0  0  0  0  0  0  0
   12.7956  -13.6424    0.0000 B   0  0  0  0  0  0  0  0  0  0  0  0
   13.2077  -14.3515    0.0000 O   0  0  0  0  0  0  0  0  0  0  0  0
   13.2072  -12.9246    0.0000 O   0  0  0  0  0  0  0  0  0  0  0  0
    8.5597  -12.8074    0.0000 C   0  0  0  0  0  0  0  0  0  0  0  0
    7.8480  -13.2236    0.0000 O   0  0  0  0  0  0  0  0  0  0  0  0
    7.1303  -12.8159    0.0000 C   0  0  0  0  0  0  0  0  0  0  0  0
    6.4144  -13.2363    0.0000 C   0  0  0  0  0  0  0  0  0  0  0  0
    5.7037  -12.8240    0.0000 C   0  0  0  0  0  0  0  0  0  0  0  0
    4.9882  -13.2368    0.0000 C   0  0  0  0  0  0  0  0  0  0  0  0
    4.9898  -14.0599    0.0000 C   0  0  0  0  0  0  0  0  0  0  0  0
    5.7054  -14.4723    0.0000 C   0  0  0  0  0  0  0  0  0  0  0  0
    6.4204  -14.0624    0.0000 C   0  0  0  0  0  0  0  0  0  0  0  0
  8 10  1  0  0  0  0
  5  6  1  0  0  0  0
 10 11  1  0  0  0  0
 10 12  1  0  0  0  0
  2  3  1  0  0  0  0
  1 13  1  0  0  0  0
  3  6  2  0  0  0  0
 13 14  1  0  0  0  0
  1  2  2  0  0  0  0
 14 15  1  0  0  0  0
  5  4  2  0  0  0  0
 15 16  1  0  0  0  0
  6  7  1  0  0  0  0
 16 17  2  0  0  0  0
  7  8  1  0  0  0  0
 17 18  1  0  0  0  0
  8  9  2  0  0  0  0
 18 19  2  0  0  0  0
  9  5  1  0  0  0  0
 19 20  1  0  0  0  0
  4  1  1  0  0  0  0
 20 21  2  0  0  0  0
 21 16  1  0  0  0  0
M  END
> <From>
www.bindingDB.org

> <BindingDB Reactant_set_id>
50404441

> <Ligand InChI>
InChI=1S/C16H15BO3S/c18-17(19)16-9-14-8-13(6-7-15(14)21-16)11-20-10-12-4-2-1-3-5-12/h1-9,18-19H,10-11H2

> <Ligand InChI Key>
FQAPYKJKLMNWLX-UHFFFAOYSA-N

> <BindingDB MonomerID>
50225391

> <BindingDB Ligand Name>
CHEMBL237181::pinacol 5-benzyloxymethylbenzo[b]thiophen-2-ylboronate

> <Target Name>
Beta-lactamase TEM

> <Target Source Organism According to Curator or DataSource>


> <Ki (nM)>
 600

> <IC50 (nM)>


> <Kd (nM)>


> <EC50 (nM)>


> <kon (M-1-s-1)>


> <koff (s-1)>


> <pH>


> <Temp C>


> <Curation/DataSource>
ChEMBL

> <Article DOI>
10.1021/jm070643q

> <BindingDB Entry DOI>
10.7270/Q21N80W5

> <PMID>
17956081

> <PubChem AID>


> <Patent Number>


> <Authors>
Venturelli, A; Tondi, D; Cancian, L; Morandi, F; Cannazza, G; Segatore, B; Prati, F; Amicosante, G; Shoichet, BK; Costi, MP

> <Institution>
Universit&#224; degli Studi di Modena e Reggio Emilia

> <Link to Ligand in BindingDB>
http://www.bindingdb.org/bind/chemsearch/marvin/MolStructure.jsp?monomerid=50225391

> <Link to Ligand-Target Pair in BindingDB>
http://www.bindingdb.org/jsp/dbsearch/PrimarySearch_ki.jsp?energyterm=kJ/mole&tag=pol&polymerid=7704&target=Beta-lactamase+TEM&column=ki&startPg=0&Increment=50&submit=Search

> <Link to Ligand-Target Pair in BindingDB>
http://www.bindingdb.org/jsp/dbsearch/PrimarySearch_ki.jsp?energyterm=kJ/mole&tag=r21&monomerid=50225391&enzyme=Beta-lactamase+TEM&column=ki&startPg=0&Increment=50&submit=Search

> <Ligand HET ID in PDB>


> <PDB ID(s) for Ligand-Target Complex>


> <PubChem CID of Ligand>
23655485

> <PubChem SID of Ligand>
104096697

> <ChEBI ID of Ligand>


> <ChEMBL ID of Ligand>
CHEMBL237181

> <DrugBank ID of Ligand>


> <IUPHAR_GRAC ID of Ligand>


> <KEGG ID of Ligand>


> <ZINC ID of Ligand>


> <Number of Protein Chains in Target (bigger than 1 implies a multichain complex)>
1

> <BindingDB Target Chain Sequence>
MSIQHFRVALIPFFAAFCLPVFAHPETLVKVKDAEDQLGARVGYIELDLNSGKILESFRPEERFPMMSTFKVLLCGAVLSRVDAGQEQLGRRIHYSQNDLVEYSPVTEKHLTDGMTVRELCSAAITMSDNTAANLLLTTIGGPKELTAFLHNMGDHVTRLDRWEPELNEAIPNDERDTTMPAAMATTLRKLLTGELLTLASRQQLIDWMEADKVAGPLLRSALPAGWFIADKSGAGERGSRGIIAALGPDGKPSRIVVIYTTGSQATMDERNRQIAEIGASLIKHW

> <PDB ID(s) of Target Chain>
1ERM,1ERO,1ERQ,1ESU,1FQG,1JTD,1JVJ,1JWP,1JWV,1LHY,1LI9,1M40,1NXY,1NY0,1NYM,1NYY,1PZO,1PZP,1S0W,1XPB,1YT4,2V1Z,2V20,3CMZ,3DTM,3JYI,3P98,4DXB,4DXC,4GKU,4ZJ2,5AQ8,5HVI,5HW1,5HW5,5NPO,6B2N,7QLP,7QNK,7U6Q,8DE0

> <UniProt (SwissProt) Recommended Name of Target Chain>
Beta-lactamase TEM

> <UniProt (SwissProt) Entry Name of Target Chain>
BLAT_ECOLX

> <UniProt (SwissProt) Primary ID of Target Chain>
P62593

> <UniProt (SwissProt) Secondary ID(s) of Target Chain>
P00810 Q47313

> <UniProt (SwissProt) Alternative ID(s) of Target Chain>


> <UniProt (TrEMBL) Submitted Name of Target Chain>


> <UniProt (TrEMBL) Entry Name of Target Chain>


> <UniProt (TrEMBL) Primary ID of Target Chain>


> <UniProt (TrEMBL) Secondary ID(s) of Target Chain>


> <UniProt (TrEMBL) Alternative ID(s) of Target Chain>


$$$$

  Mrv0541 11191401012D          

 22 23  0  0  0  0            999 V2000
   -0.7396    1.4778    0.0000 C   0  0  0  0  0  0  0  0  0  0  0  0
   -1.5646    1.4778    0.0000 C   0  0  0  0  0  0  0  0  0  0  0  0
   -1.9771    2.1922    0.0000 C   0  0  0  0  0  0  0  0  0  0  0  0
   -1.5646    2.9067    0.0000 C   0  0  0  0  0  0  0  0  0  0  0  0
   -0.7396    2.9067    0.0000 C   0  0  0  0  0  0  0  0  0  0  0  0
   -0.3271    2.1922    0.0000 C   0  0  0  0  0  0  0  0  0  0  0  0
   -1.9771    3.6212    0.0000 B   0  0  0  0  0  0  0  0  0  0  0  0
   -2.8021    3.6212    0.0000 O   0  0  0  0  0  0  0  0  0  0  0  0
   -1.5646    4.3356    0.0000 O   0  0  0  0  0  0  0  0  0  0  0  0
    0.4979    2.1922    0.0000 N   0  0  0  0  0  0  0  0  0  0  0  0
    0.9104    1.4778    0.0000 S   0  0  0  0  0  0  0  0  0  0  0  0
    0.4979    0.7633    0.0000 O   0  0  0  0  0  0  0  0  0  0  0  0
    1.7354    1.4778    0.0000 C   0  0  0  0  0  0  0  0  0  0  0  0
    1.3229    2.1923    0.0000 O   0  0  0  0  0  0  0  0  0  0  0  0
    2.9729    2.1923    0.0000 C   0  0  0  0  0  0  0  0  0  0  0  0
    2.1479    2.1923    0.0000 C   0  0  0  0  0  0  0  0  0  0  0  0
    2.1479    0.7633    0.0000 C   0  0  0  0  0  0  0  0  0  0  0  0
    2.9729    0.7634    0.0000 C   0  0  0  0  0  0  0  0  0  0  0  0
    3.3854    1.4778    0.0000 C   0  0  0  0  0  0  0  0  0  0  0  0
    4.2104    1.4778    0.0000 C   0  0  0  0  0  0  0  0  0  0  0  0
    4.6229    2.1923    0.0000 O   0  0  0  0  0  0  0  0  0  0  0  0
    4.6229    0.7634    0.0000 O   0  0  0  0  0  0  0  0  0  0  0  0
  1  2  2  0  0  0  0
  2  3  1  0  0  0  0
  3  4  2  0  0  0  0
  4  5  1  0  0  0  0
  5  6  2  0  0  0  0
  1  6  1  0  0  0  0
  4  7  1  0  0  0  0
  7  8  1  0  0  0  0
  7  9  1  0  0  0  0
  6 10  1  0  0  0  0
 10 11  1  0  0  0  0
 11 12  2  0  0  0  0
 11 13  1  0  0  0  0
 11 14  2  0  0  0  0
 16 13  2  0  0  0  0
 13 17  1  0  0  0  0
 15 16  1  0  0  0  0
 17 18  2  0  0  0  0
 18 19  1  0  0  0  0
 15 19  2  0  0  0  0
 19 20  1  0  0  0  0
 20 21  1  0  0  0  0
 20 22  2  0  0  0  0
M  END
> <From>
www.bindingDB.org

> <BindingDB Reactant_set_id>
74838

> <Ligand InChI>
InChI=1S/C13H12BNO6S/c16-13(17)9-4-6-12(7-5-9)22(20,21)15-11-3-1-2-10(8-11)14(18)19/h1-8,15,18-19H,(H,16,17)

> <Ligand InChI Key>
MFXIOQADMLRRPJ-UHFFFAOYSA-N

> <BindingDB MonomerID>
39852

> <BindingDB Ligand Name>
Amide and sulfonamide derivatives, 36

> <Target Name>
Beta-lactamase

> <Target Source Organism According to Curator or DataSource>
Escherichia coli

> <Ki (nM)>
 6.2e+2

> <IC50 (nM)>


> <Kd (nM)>


> <EC50 (nM)>


> <kon (M-1-s-1)>


> <koff (s-1)>


> <pH>
7

> <Temp C>


> <Curation/DataSource>
Curated from the literature by BindingDB

> <Article DOI>
10.1016/S1074-5521(01)00034-5

> <BindingDB Entry DOI>
10.7270/Q27M06BZ

> <PMID>
11410378

> <PubChem AID>
aid1799472

> <Patent Number>


> <Authors>
Tondi, D; Powers, RA; Caselli, E; Negri, MC; Bl&aacute;zquez, J; Costi, MP; Shoichet, BK

> <Institution>
Northwestern University

> <Link to Ligand in BindingDB>
http://www.bindingdb.org/bind/chemsearch/marvin/MolStructure.jsp?monomerid=39852

> <Link to Ligand-Target Pair in BindingDB>
http://www.bindingdb.org/jsp/dbsearch/PrimarySearch_ki.jsp?energyterm=kJ/mole&tag=pol&polymerid=4401&target=Beta-lactamase&column=ki&startPg=0&Increment=50&submit=Search

> <Link to Ligand-Target Pair in BindingDB>
http://www.bindingdb.org/jsp/dbsearch/PrimarySearch_ki.jsp?energyterm=kJ/mole&tag=r21&monomerid=39852&enzyme=Beta-lactamase&column=ki&startPg=0&Increment=50&submit=Search

> <Ligand HET ID in PDB>


> <PDB ID(s) for Ligand-Target Complex>


> <PubChem CID of Ligand>
52940008

> <PubChem SID of Ligand>
123080160

> <ChEBI ID of Ligand>


> <ChEMBL ID of Ligand>


> <DrugBank ID of Ligand>


> <IUPHAR_GRAC ID of Ligand>


> <KEGG ID of Ligand>


> <ZINC ID of Ligand>


> <Number of Protein Chains in Target (bigger than 1 implies a multichain complex)>
1

> <BindingDB Target Chain Sequence>
MFKTTLCALLITASCSTFAAPQQINDIVHRTITPLIEQQKIPGMAVAVIYQGKPYYFTWGYADIAKKQPVTQQTLFELGSVSKTFTGVLGGDAIARGEIKLSDPTTKYWPELTAKQWNGITLLHLATYTAGGLPLQVPDEVKSSSDLLRFYQNWQPAWAPGTQRLYANSSIGLFGALAVKPSGLSFEQAMQTRVFQPLKLNHTWINVPPAEEKNYAWGYREGKAVHVSPGALDAEAYGVKSTIEDMARWVQSNLKPLDINEKTLQQGIQLAQSRYWQTGDMYQGLGWEMLDWPVNPDSIINGSDNKIALAARPVKAITPPTPAVRASWVHKTGATGGFGSYVAFIPEKELGIVMLANKNYPNPARVDAAWQILNALQ

> <PDB ID(s) of Target Chain>
1C3B,1FCO,1FSW,1FSY,1GA9,1IEL,1IEM,1KDS,1KDW,1KE0,1KE3,1KE4,1KVM,1L2S,1LL5,1LL9,1LLB,1MXO,1MY8,1XGI,1XGJ,2BLS,2HDQ,2HDR,2HDS,2HDU,2I72,2P9V,2PU2,2PU4,2R9W,2R9X,2RCX,3BLS,3BM6,3GQZ,3GR2,3GRJ,3GSG,3GTC,3GV9,3GVB,3O86,3O87,3O88,4E3I,4E3J,4E3K,4E3L,4E3M,4E3N,4E3O,4JXG,4JXS,4JXV,4JXW,4KG2,4KZ3,4KZ4,4KZ5,4KZ6,4KZ7,4KZ8,4KZ9,4KZA,4KZB,4LV0,4LV1,4LV2,4LV3,4OKP,4OLD,4OLG,6DPT,6DPX,6DPY,6DPZ,6T35,6T3D,6T5Y,6T7L,6TBW,6TPM,6WGQ,6YEN,6YEO,6YPD

> <UniProt (SwissProt) Recommended Name of Target Chain>
Beta-lactamase

> <UniProt (SwissProt) Entry Name of Target Chain>
AMPC_ECOLI

> <UniProt (SwissProt) Primary ID of Target Chain>
P00811

> <UniProt (SwissProt) Secondary ID(s) of Target Chain>
Q2M6F2

> <UniProt (SwissProt) Alternative ID(s) of Target Chain>


> <UniProt (TrEMBL) Submitted Name of Target Chain>


> <UniProt (TrEMBL) Entry Name of Target Chain>


> <UniProt (TrEMBL) Primary ID of Target Chain>


> <UniProt (TrEMBL) Secondary ID(s) of Target Chain>


> <UniProt (TrEMBL) Alternative ID(s) of Target Chain>


$$$$

  Mrv0541 11191401012D          

 23 25  0  0  0  0            999 V2000
    0.9290   -0.3905    0.0000 C   0  0  0  0  0  0  0  0  0  0  0  0
    0.2146   -0.8030    0.0000 C   0  0  0  0  0  0  0  0  0  0  0  0
   -0.4999   -0.3905    0.0000 C   0  0  0  0  0  0  0  0  0  0  0  0
   -0.4999    0.4345    0.0000 C   0  0  0  0  0  0  0  0  0  0  0  0
    0.2146    0.8470    0.0000 C   0  0  0  0  0  0  0  0  0  0  0  0
    0.9290    0.4345    0.0000 C   0  0  0  0  0  0  0  0  0  0  0  0
   -1.2144    0.8470    0.0000 B   0  0  0  0  0  0  0  0  0  0  0  0
   -1.9288    0.4345    0.0000 O   0  0  0  0  0  0  0  0  0  0  0  0
   -1.2144    1.6720    0.0000 O   0  0  0  0  0  0  0  0  0  0  0  0
    1.6435    0.8470    0.0000 N   0  0  0  0  0  0  0  0  0  0  0  0
    1.6435    1.6720    0.0000 S   0  0  0  0  0  0  0  0  0  0  0  0
    1.6435    2.4970    0.0000 C   0  0  0  0  0  0  0  0  0  0  0  0
    0.8185    1.6720    0.0000 O   0  0  0  0  0  0  0  0  0  0  0  0
    2.4685    1.6720    0.0000 O   0  0  0  0  0  0  0  0  0  0  0  0
    0.9290    3.7345    0.0000 C   0  0  0  0  0  0  0  0  0  0  0  0
    0.9290    2.9095    0.0000 C   0  0  0  0  0  0  0  0  0  0  0  0
    2.3580    3.7345    0.0000 C   0  0  0  0  0  0  0  0  0  0  0  0
    1.6435    4.1470    0.0000 C   0  0  0  0  0  0  0  0  0  0  0  0
    2.3580    2.9095    0.0000 C   0  0  0  0  0  0  0  0  0  0  0  0
    3.0725    2.4970    0.0000 N   0  0  0  0  0  0  0  0  0  0  0  0
    3.7869    2.9095    0.0000 C   0  0  0  0  0  0  0  0  0  0  0  0
    3.7869    3.7345    0.0000 C   0  0  0  0  0  0  0  0  0  0  0  0
    3.0725    4.1470    0.0000 C   0  0  0  0  0  0  0  0  0  0  0  0
  1  2  2  0  0  0  0
  2  3  1  0  0  0  0
  3  4  2  0  0  0  0
  4  5  1  0  0  0  0
  5  6  2  0  0  0  0
  1  6  1  0  0  0  0
  4  7  1  0  0  0  0
  7  8  1  0  0  0  0
  7  9  1  0  0  0  0
  6 10  1  0  0  0  0
 10 11  1  0  0  0  0
 11 12  1  0  0  0  0
 11 13  2  0  0  0  0
 11 14  2  0  0  0  0
 16 12  1  0  0  0  0
 12 19  2  0  0  0  0
 15 16  2  0  0  0  0
 17 18  2  0  0  0  0
 15 18  1  0  0  0  0
 17 23  1  0  0  0  0
 19 20  1  0  0  0  0
 20 21  2  0  0  0  0
 21 22  1  0  0  0  0
 22 23  2  0  0  0  0
 19 17  1  0  0  0  0
M  END
> <From>
www.bindingDB.org

> <BindingDB Reactant_set_id>
74808

> <Ligand InChI>
InChI=1S/C15H13BN2O4S/c19-16(20)12-6-2-7-13(10-12)18-23(21,22)14-8-1-4-11-5-3-9-17-15(11)14/h1-10,18-20H

> <Ligand InChI Key>
RUPKKCOEKQVDLZ-UHFFFAOYSA-N

> <BindingDB MonomerID>
39822

> <BindingDB Ligand Name>
Amide and sulfonamide derivatives, 6

> <Target Name>
Beta-lactamase

> <Target Source Organism According to Curator or DataSource>
Escherichia coli

> <Ki (nM)>
 6.6e+2

> <IC50 (nM)>


> <Kd (nM)>


> <EC50 (nM)>


> <kon (M-1-s-1)>


> <koff (s-1)>


> <pH>
7

> <Temp C>


> <Curation/DataSource>
Curated from the literature by BindingDB

> <Article DOI>
10.1016/S1074-5521(01)00034-5

> <BindingDB Entry DOI>
10.7270/Q27M06BZ

> <PMID>
11410378

> <PubChem AID>
aid1799472

> <Patent Number>


> <Authors>
Tondi, D; Powers, RA; Caselli, E; Negri, MC; Bl&aacute;zquez, J; Costi, MP; Shoichet, BK

> <Institution>
Northwestern University

> <Link to Ligand in BindingDB>
http://www.bindingdb.org/bind/chemsearch/marvin/MolStructure.jsp?monomerid=39822

> <Link to Ligand-Target Pair in BindingDB>
http://www.bindingdb.org/jsp/dbsearch/PrimarySearch_ki.jsp?energyterm=kJ/mole&tag=pol&polymerid=4401&target=Beta-lactamase&column=ki&startPg=0&Increment=50&submit=Search

> <Link to Ligand-Target Pair in BindingDB>
http://www.bindingdb.org/jsp/dbsearch/PrimarySearch_ki.jsp?energyterm=kJ/mole&tag=r21&monomerid=39822&enzyme=Beta-lactamase&column=ki&startPg=0&Increment=50&submit=Search

> <Ligand HET ID in PDB>


> <PDB ID(s) for Ligand-Target Complex>


> <PubChem CID of Ligand>
52939993

> <PubChem SID of Ligand>
123080130

> <ChEBI ID of Ligand>


> <ChEMBL ID of Ligand>


> <DrugBank ID of Ligand>


> <IUPHAR_GRAC ID of Ligand>


> <KEGG ID of Ligand>


> <ZINC ID of Ligand>


> <Number of Protein Chains in Target (bigger than 1 implies a multichain complex)>
1

> <BindingDB Target Chain Sequence>
MFKTTLCALLITASCSTFAAPQQINDIVHRTITPLIEQQKIPGMAVAVIYQGKPYYFTWGYADIAKKQPVTQQTLFELGSVSKTFTGVLGGDAIARGEIKLSDPTTKYWPELTAKQWNGITLLHLATYTAGGLPLQVPDEVKSSSDLLRFYQNWQPAWAPGTQRLYANSSIGLFGALAVKPSGLSFEQAMQTRVFQPLKLNHTWINVPPAEEKNYAWGYREGKAVHVSPGALDAEAYGVKSTIEDMARWVQSNLKPLDINEKTLQQGIQLAQSRYWQTGDMYQGLGWEMLDWPVNPDSIINGSDNKIALAARPVKAITPPTPAVRASWVHKTGATGGFGSYVAFIPEKELGIVMLANKNYPNPARVDAAWQILNALQ

> <PDB ID(s) of Target Chain>
1C3B,1FCO,1FSW,1FSY,1GA9,1IEL,1IEM,1KDS,1KDW,1KE0,1KE3,1KE4,1KVM,1L2S,1LL5,1LL9,1LLB,1MXO,1MY8,1XGI,1XGJ,2BLS,2HDQ,2HDR,2HDS,2HDU,2I72,2P9V,2PU2,2PU4,2R9W,2R9X,2RCX,3BLS,3BM6,3GQZ,3GR2,3GRJ,3GSG,3GTC,3GV9,3GVB,3O86,3O87,3O88,4E3I,4E3J,4E3K,4E3L,4E3M,4E3N,4E3O,4JXG,4JXS,4JXV,4JXW,4KG2,4KZ3,4KZ4,4KZ5,4KZ6,4KZ7,4KZ8,4KZ9,4KZA,4KZB,4LV0,4LV1,4LV2,4LV3,4OKP,4OLD,4OLG,6DPT,6DPX,6DPY,6DPZ,6T35,6T3D,6T5Y,6T7L,6TBW,6TPM,6WGQ,6YEN,6YEO,6YPD

> <UniProt (SwissProt) Recommended Name of Target Chain>
Beta-lactamase

> <UniProt (SwissProt) Entry Name of Target Chain>
AMPC_ECOLI

> <UniProt (SwissProt) Primary ID of Target Chain>
P00811

> <UniProt (SwissProt) Secondary ID(s) of Target Chain>
Q2M6F2

> <UniProt (SwissProt) Alternative ID(s) of Target Chain>


> <UniProt (TrEMBL) Submitted Name of Target Chain>


> <UniProt (TrEMBL) Entry Name of Target Chain>


> <UniProt (TrEMBL) Primary ID of Target Chain>


> <UniProt (TrEMBL) Secondary ID(s) of Target Chain>


> <UniProt (TrEMBL) Alternative ID(s) of Target Chain>


$$$$

  Mrv0541 11191401012D          

 22 23  0  0  0  0            999 V2000
   -0.7396    1.4778    0.0000 C   0  0  0  0  0  0  0  0  0  0  0  0
   -1.5646    1.4778    0.0000 C   0  0  0  0  0  0  0  0  0  0  0  0
   -1.9771    2.1922    0.0000 C   0  0  0  0  0  0  0  0  0  0  0  0
   -1.5646    2.9067    0.0000 C   0  0  0  0  0  0  0  0  0  0  0  0
   -0.7396    2.9067    0.0000 C   0  0  0  0  0  0  0  0  0  0  0  0
   -0.3271    2.1922    0.0000 C   0  0  0  0  0  0  0  0  0  0  0  0
   -1.9771    3.6212    0.0000 B   0  0  0  0  0  0  0  0  0  0  0  0
   -2.8021    3.6212    0.0000 O   0  0  0  0  0  0  0  0  0  0  0  0
   -1.5646    4.3356    0.0000 O   0  0  0  0  0  0  0  0  0  0  0  0
    0.4979    2.1922    0.0000 N   0  0  0  0  0  0  0  0  0  0  0  0
    0.9104    1.4778    0.0000 S   0  0  0  0  0  0  0  0  0  0  0  0
    0.4979    0.7633    0.0000 O   0  0  0  0  0  0  0  0  0  0  0  0
    1.7354    1.4778    0.0000 C   0  0  0  0  0  0  0  0  0  0  0  0
    1.3229    2.1923    0.0000 O   0  0  0  0  0  0  0  0  0  0  0  0
    2.0709    2.2315    0.0000 C   0  0  0  0  0  0  0  0  0  0  0  0
    2.3485    0.9258    0.0000 S   0  0  0  0  0  0  0  0  0  0  0  0
    3.0629    1.3383    0.0000 C   0  0  0  0  0  0  0  0  0  0  0  0
    2.8914    2.1453    0.0000 C   0  0  0  0  0  0  0  0  0  0  0  0
    3.4435    2.7583    0.0000 N   0  0  0  0  0  0  0  0  0  0  0  0
    3.1885    3.5430    0.0000 O   0  0  0  0  0  0  0  0  0  0  0  0
    4.2504    2.5868    0.0000 O   0  0  0  0  0  0  0  0  0  0  0  0
    3.8166    1.0028    0.0000 Cl  0  0  0  0  0  0  0  0  0  0  0  0
  1  2  2  0  0  0  0
  2  3  1  0  0  0  0
  3  4  2  0  0  0  0
  4  5  1  0  0  0  0
  5  6  2  0  0  0  0
  1  6  1  0  0  0  0
  4  7  1  0  0  0  0
  7  8  1  0  0  0  0
  7  9  1  0  0  0  0
  6 10  1  0  0  0  0
 10 11  1  0  0  0  0
 11 12  2  0  0  0  0
 11 13  1  0  0  0  0
 11 14  2  0  0  0  0
 15 13  2  0  0  0  0
 13 16  1  0  0  0  0
 16 17  1  0  0  0  0
 17 18  2  0  0  0  0
 15 18  1  0  0  0  0
 18 19  1  0  0  0  0
 19 20  2  0  0  0  0
 19 21  2  0  0  0  0
 17 22  1  0  0  0  0
M  END
> <From>
www.bindingDB.org

> <BindingDB Reactant_set_id>
74832

> <Ligand InChI>
InChI=1S/C10H8BClN2O6S2/c12-10-8(14(17)18)5-9(21-10)22(19,20)13-7-3-1-2-6(4-7)11(15)16/h1-5,13,15-16H

> <Ligand InChI Key>
AVUVNANVZXBVBU-UHFFFAOYSA-N

> <BindingDB MonomerID>
39846

> <BindingDB Ligand Name>
Amide and sulfonamide derivatives, 30

> <Target Name>
Beta-lactamase

> <Target Source Organism According to Curator or DataSource>
Escherichia coli

> <Ki (nM)>
 6.8e+2

> <IC50 (nM)>


> <Kd (nM)>


> <EC50 (nM)>


> <kon (M-1-s-1)>


> <koff (s-1)>


> <pH>
7

> <Temp C>


> <Curation/DataSource>
Curated from the literature by BindingDB

> <Article DOI>
10.1016/S1074-5521(01)00034-5

> <BindingDB Entry DOI>
10.7270/Q27M06BZ

> <PMID>
11410378

> <PubChem AID>
aid1799472

> <Patent Number>


> <Authors>
Tondi, D; Powers, RA; Caselli, E; Negri, MC; Bl&aacute;zquez, J; Costi, MP; Shoichet, BK

> <Institution>
Northwestern University

> <Link to Ligand in BindingDB>
http://www.bindingdb.org/bind/chemsearch/marvin/MolStructure.jsp?monomerid=39846

> <Link to Ligand-Target Pair in BindingDB>
http://www.bindingdb.org/jsp/dbsearch/PrimarySearch_ki.jsp?energyterm=kJ/mole&tag=pol&polymerid=4401&target=Beta-lactamase&column=ki&startPg=0&Increment=50&submit=Search

> <Link to Ligand-Target Pair in BindingDB>
http://www.bindingdb.org/jsp/dbsearch/PrimarySearch_ki.jsp?energyterm=kJ/mole&tag=r21&monomerid=39846&enzyme=Beta-lactamase&column=ki&startPg=0&Increment=50&submit=Search

> <Ligand HET ID in PDB>


> <PDB ID(s) for Ligand-Target Complex>


> <PubChem CID of Ligand>
52940003

> <PubChem SID of Ligand>
123080154

> <ChEBI ID of Ligand>


> <ChEMBL ID of Ligand>


> <DrugBank ID of Ligand>


> <IUPHAR_GRAC ID of Ligand>


> <KEGG ID of Ligand>
C06058

> <ZINC ID of Ligand>


> <Number of Protein Chains in Target (bigger than 1 implies a multichain complex)>
1

> <BindingDB Target Chain Sequence>
MFKTTLCALLITASCSTFAAPQQINDIVHRTITPLIEQQKIPGMAVAVIYQGKPYYFTWGYADIAKKQPVTQQTLFELGSVSKTFTGVLGGDAIARGEIKLSDPTTKYWPELTAKQWNGITLLHLATYTAGGLPLQVPDEVKSSSDLLRFYQNWQPAWAPGTQRLYANSSIGLFGALAVKPSGLSFEQAMQTRVFQPLKLNHTWINVPPAEEKNYAWGYREGKAVHVSPGALDAEAYGVKSTIEDMARWVQSNLKPLDINEKTLQQGIQLAQSRYWQTGDMYQGLGWEMLDWPVNPDSIINGSDNKIALAARPVKAITPPTPAVRASWVHKTGATGGFGSYVAFIPEKELGIVMLANKNYPNPARVDAAWQILNALQ

> <PDB ID(s) of Target Chain>
1C3B,1FCO,1FSW,1FSY,1GA9,1IEL,1IEM,1KDS,1KDW,1KE0,1KE3,1KE4,1KVM,1L2S,1LL5,1LL9,1LLB,1MXO,1MY8,1XGI,1XGJ,2BLS,2HDQ,2HDR,2HDS,2HDU,2I72,2P9V,2PU2,2PU4,2R9W,2R9X,2RCX,3BLS,3BM6,3GQZ,3GR2,3GRJ,3GSG,3GTC,3GV9,3GVB,3O86,3O87,3O88,4E3I,4E3J,4E3K,4E3L,4E3M,4E3N,4E3O,4JXG,4JXS,4JXV,4JXW,4KG2,4KZ3,4KZ4,4KZ5,4KZ6,4KZ7,4KZ8,4KZ9,4KZA,4KZB,4LV0,4LV1,4LV2,4LV3,4OKP,4OLD,4OLG,6DPT,6DPX,6DPY,6DPZ,6T35,6T3D,6T5Y,6T7L,6TBW,6TPM,6WGQ,6YEN,6YEO,6YPD

> <UniProt (SwissProt) Recommended Name of Target Chain>
Beta-lactamase

> <UniProt (SwissProt) Entry Name of Target Chain>
AMPC_ECOLI

> <UniProt (SwissProt) Primary ID of Target Chain>
P00811

> <UniProt (SwissProt) Secondary ID(s) of Target Chain>
Q2M6F2

> <UniProt (SwissProt) Alternative ID(s) of Target Chain>


> <UniProt (TrEMBL) Submitted Name of Target Chain>


> <UniProt (TrEMBL) Entry Name of Target Chain>


> <UniProt (TrEMBL) Primary ID of Target Chain>


> <UniProt (TrEMBL) Secondary ID(s) of Target Chain>


> <UniProt (TrEMBL) Alternative ID(s) of Target Chain>


$$$$

  Mrv0541 11191401012D          

 15 15  0  0  0  0            999 V2000
   -2.0920    2.6813    0.0000 C   0  0  0  0  0  0  0  0  0  0  0  0
   -1.3775    3.0938    0.0000 C   0  0  0  0  0  0  0  0  0  0  0  0
   -0.6630    2.6813    0.0000 N   0  0  0  0  0  0  0  0  0  0  0  0
   -1.3775    3.9188    0.0000 O   0  0  0  0  0  0  0  0  0  0  0  0
    0.0514    3.0938    0.0000 C   0  0  0  0  0  0  0  0  0  0  0  0
    0.7659    2.6813    0.0000 B   0  0  0  0  0  0  0  0  0  0  0  0
    1.4804    3.0938    0.0000 O   0  0  0  0  0  0  0  0  0  0  0  0
    0.7659    1.8563    0.0000 O   0  0  0  0  0  0  0  0  0  0  0  0
   -2.8064    3.0938    0.0000 O   0  0  0  0  0  0  0  0  0  0  0  0
   -3.5209    2.6813    0.0000 C   0  0  0  0  0  0  0  0  0  0  0  0
   -4.2354    3.0938    0.0000 C   0  0  0  0  0  0  0  0  0  0  0  0
   -4.9498    2.6813    0.0000 C   0  0  0  0  0  0  0  0  0  0  0  0
   -4.9498    1.8562    0.0000 C   0  0  0  0  0  0  0  0  0  0  0  0
   -4.2354    1.4437    0.0000 C   0  0  0  0  0  0  0  0  0  0  0  0
   -3.5209    1.8562    0.0000 C   0  0  0  0  0  0  0  0  0  0  0  0
  1  2  1  0  0  0  0
  2  3  1  0  0  0  0
  2  4  2  0  0  0  0
  3  5  1  0  0  0  0
  5  6  1  0  0  0  0
  6  7  1  0  0  0  0
  6  8  1  0  0  0  0
  1  9  1  0  0  0  0
  9 10  1  0  0  0  0
 15 10  2  0  0  0  0
 11 10  1  0  0  0  0
 11 12  2  0  0  0  0
 12 13  1  0  0  0  0
 13 14  2  0  0  0  0
 14 15  1  0  0  0  0
M  END
> <From>
www.bindingDB.org

> <BindingDB Reactant_set_id>
74784

> <Ligand InChI>
InChI=1S/C9H12BNO4/c12-9(11-7-10(13)14)6-15-8-4-2-1-3-5-8/h1-5,13-14H,6-7H2,(H,11,12)

> <Ligand InChI Key>
XAHKSVPAWHRDKV-UHFFFAOYSA-N

> <BindingDB MonomerID>
39810

> <BindingDB Ligand Name>
Acylglycineboronic acid, 7

> <Target Name>
Beta-lactamase

> <Target Source Organism According to Curator or DataSource>
Escherichia coli

> <Ki (nM)>
 7.0e+2

> <IC50 (nM)>


> <Kd (nM)>


> <EC50 (nM)>


> <kon (M-1-s-1)>


> <koff (s-1)>


> <pH>
7

> <Temp C>


> <Curation/DataSource>
Curated from the literature by BindingDB

> <Article DOI>
10.1016/S1074-5521(00)00052-1

> <BindingDB Entry DOI>
10.7270/Q2CC0Z3R

> <PMID>
11182316

> <PubChem AID>
aid1799471

> <Patent Number>


> <Authors>
Caselli, E; Powers, RA; Blasczcak, LC; Wu, CY; Prati, F; Shoichet, BK

> <Institution>
Northwestern University

> <Link to Ligand in BindingDB>
http://www.bindingdb.org/bind/chemsearch/marvin/MolStructure.jsp?monomerid=39810

> <Link to Ligand-Target Pair in BindingDB>
http://www.bindingdb.org/jsp/dbsearch/PrimarySearch_ki.jsp?energyterm=kJ/mole&tag=pol&polymerid=4401&target=Beta-lactamase&column=ki&startPg=0&Increment=50&submit=Search

> <Link to Ligand-Target Pair in BindingDB>
http://www.bindingdb.org/jsp/dbsearch/PrimarySearch_ki.jsp?energyterm=kJ/mole&tag=r21&monomerid=39810&enzyme=Beta-lactamase&column=ki&startPg=0&Increment=50&submit=Search

> <Ligand HET ID in PDB>


> <PDB ID(s) for Ligand-Target Complex>


> <PubChem CID of Ligand>
52939986

> <PubChem SID of Ligand>
123080118

> <ChEBI ID of Ligand>


> <ChEMBL ID of Ligand>


> <DrugBank ID of Ligand>


> <IUPHAR_GRAC ID of Ligand>


> <KEGG ID of Ligand>


> <ZINC ID of Ligand>


> <Number of Protein Chains in Target (bigger than 1 implies a multichain complex)>
1

> <BindingDB Target Chain Sequence>
MFKTTLCALLITASCSTFAAPQQINDIVHRTITPLIEQQKIPGMAVAVIYQGKPYYFTWGYADIAKKQPVTQQTLFELGSVSKTFTGVLGGDAIARGEIKLSDPTTKYWPELTAKQWNGITLLHLATYTAGGLPLQVPDEVKSSSDLLRFYQNWQPAWAPGTQRLYANSSIGLFGALAVKPSGLSFEQAMQTRVFQPLKLNHTWINVPPAEEKNYAWGYREGKAVHVSPGALDAEAYGVKSTIEDMARWVQSNLKPLDINEKTLQQGIQLAQSRYWQTGDMYQGLGWEMLDWPVNPDSIINGSDNKIALAARPVKAITPPTPAVRASWVHKTGATGGFGSYVAFIPEKELGIVMLANKNYPNPARVDAAWQILNALQ

> <PDB ID(s) of Target Chain>
1C3B,1FCO,1FSW,1FSY,1GA9,1IEL,1IEM,1KDS,1KDW,1KE0,1KE3,1KE4,1KVM,1L2S,1LL5,1LL9,1LLB,1MXO,1MY8,1XGI,1XGJ,2BLS,2HDQ,2HDR,2HDS,2HDU,2I72,2P9V,2PU2,2PU4,2R9W,2R9X,2RCX,3BLS,3BM6,3GQZ,3GR2,3GRJ,3GSG,3GTC,3GV9,3GVB,3O86,3O87,3O88,4E3I,4E3J,4E3K,4E3L,4E3M,4E3N,4E3O,4JXG,4JXS,4JXV,4JXW,4KG2,4KZ3,4KZ4,4KZ5,4KZ6,4KZ7,4KZ8,4KZ9,4KZA,4KZB,4LV0,4LV1,4LV2,4LV3,4OKP,4OLD,4OLG,6DPT,6DPX,6DPY,6DPZ,6T35,6T3D,6T5Y,6T7L,6TBW,6TPM,6WGQ,6YEN,6YEO,6YPD

> <UniProt (SwissProt) Recommended Name of Target Chain>
Beta-lactamase

> <UniProt (SwissProt) Entry Name of Target Chain>
AMPC_ECOLI

> <UniProt (SwissProt) Primary ID of Target Chain>
P00811

> <UniProt (SwissProt) Secondary ID(s) of Target Chain>
Q2M6F2

> <UniProt (SwissProt) Alternative ID(s) of Target Chain>


> <UniProt (TrEMBL) Submitted Name of Target Chain>


> <UniProt (TrEMBL) Entry Name of Target Chain>


> <UniProt (TrEMBL) Primary ID of Target Chain>


> <UniProt (TrEMBL) Secondary ID(s) of Target Chain>


> <UniProt (TrEMBL) Alternative ID(s) of Target Chain>


$$$$

  Mrv0541 11191401012D          

 24 25  0  0  0  0            999 V2000
    0.9290   -0.3905    0.0000 C   0  0  0  0  0  0  0  0  0  0  0  0
    0.2146   -0.8030    0.0000 C   0  0  0  0  0  0  0  0  0  0  0  0
   -0.4999   -0.3905    0.0000 C   0  0  0  0  0  0  0  0  0  0  0  0
   -0.4999    0.4345    0.0000 C   0  0  0  0  0  0  0  0  0  0  0  0
    0.2146    0.8470    0.0000 C   0  0  0  0  0  0  0  0  0  0  0  0
    0.9290    0.4345    0.0000 C   0  0  0  0  0  0  0  0  0  0  0  0
   -1.2144    0.8470    0.0000 B   0  0  0  0  0  0  0  0  0  0  0  0
   -1.9288    0.4345    0.0000 O   0  0  0  0  0  0  0  0  0  0  0  0
   -1.2144    1.6720    0.0000 O   0  0  0  0  0  0  0  0  0  0  0  0
    1.6435    0.8470    0.0000 N   0  0  0  0  0  0  0  0  0  0  0  0
    1.6435    1.6720    0.0000 S   0  0  0  0  0  0  0  0  0  0  0  0
    1.6435    2.4970    0.0000 C   0  0  0  0  0  0  0  0  0  0  0  0
    0.8185    1.6720    0.0000 O   0  0  0  0  0  0  0  0  0  0  0  0
    2.4685    1.6720    0.0000 O   0  0  0  0  0  0  0  0  0  0  0  0
    1.6435    4.1471    0.0000 C   0  0  0  0  0  0  0  0  0  0  0  0
    0.9290    3.7346    0.0000 C   0  0  0  0  0  0  0  0  0  0  0  0
    0.9290    2.9095    0.0000 C   0  0  0  0  0  0  0  0  0  0  0  0
    2.3580    2.9095    0.0000 C   0  0  0  0  0  0  0  0  0  0  0  0
    2.3580    3.7346    0.0000 C   0  0  0  0  0  0  0  0  0  0  0  0
    1.6435    4.9721    0.0000 O   0  0  0  0  0  0  0  0  0  0  0  0
    2.3580    5.3846    0.0000 C   0  0  0  0  0  0  0  0  0  0  0  0
    2.3580    6.2096    0.0000 F   0  0  0  0  0  0  0  0  0  0  0  0
    3.1549    5.1710    0.0000 F   0  0  0  0  0  0  0  0  0  0  0  0
    2.4657    4.5666    0.0000 F   0  0  0  0  0  0  0  0  0  0  0  0
  1  2  2  0  0  0  0
  2  3  1  0  0  0  0
  3  4  2  0  0  0  0
  4  5  1  0  0  0  0
  5  6  2  0  0  0  0
  1  6  1  0  0  0  0
  4  7  1  0  0  0  0
  7  8  1  0  0  0  0
  7  9  1  0  0  0  0
  6 10  1  0  0  0  0
 10 11  1  0  0  0  0
 11 12  1  0  0  0  0
 11 13  2  0  0  0  0
 11 14  2  0  0  0  0
 17 12  2  0  0  0  0
 12 18  1  0  0  0  0
 15 16  2  0  0  0  0
 16 17  1  0  0  0  0
 18 19  2  0  0  0  0
 15 19  1  0  0  0  0
 15 20  1  0  0  0  0
 20 21  1  0  0  0  0
 21 22  1  0  0  0  0
 21 23  1  0  0  0  0
 21 24  1  0  0  0  0
M  END
> <From>
www.bindingDB.org

> <BindingDB Reactant_set_id>
74809

> <Ligand InChI>
InChI=1S/C13H11BF3NO5S/c15-13(16,17)23-11-4-6-12(7-5-11)24(21,22)18-10-3-1-2-9(8-10)14(19)20/h1-8,18-20H

> <Ligand InChI Key>
WDQAFTIXZAGKGX-UHFFFAOYSA-N

> <BindingDB MonomerID>
39823

> <BindingDB Ligand Name>
Amide and sulfonamide derivatives, 7

> <Target Name>
Beta-lactamase

> <Target Source Organism According to Curator or DataSource>
Escherichia coli

> <Ki (nM)>
 7.0e+2

> <IC50 (nM)>


> <Kd (nM)>


> <EC50 (nM)>


> <kon (M-1-s-1)>


> <koff (s-1)>


> <pH>
7

> <Temp C>


> <Curation/DataSource>
Curated from the literature by BindingDB

> <Article DOI>
10.1016/S1074-5521(01)00034-5

> <BindingDB Entry DOI>
10.7270/Q27M06BZ

> <PMID>
11410378

> <PubChem AID>
aid1799472

> <Patent Number>


> <Authors>
Tondi, D; Powers, RA; Caselli, E; Negri, MC; Bl&aacute;zquez, J; Costi, MP; Shoichet, BK

> <Institution>
Northwestern University

> <Link to Ligand in BindingDB>
http://www.bindingdb.org/bind/chemsearch/marvin/MolStructure.jsp?monomerid=39823

> <Link to Ligand-Target Pair in BindingDB>
http://www.bindingdb.org/jsp/dbsearch/PrimarySearch_ki.jsp?energyterm=kJ/mole&tag=pol&polymerid=4401&target=Beta-lactamase&column=ki&startPg=0&Increment=50&submit=Search

> <Link to Ligand-Target Pair in BindingDB>
http://www.bindingdb.org/jsp/dbsearch/PrimarySearch_ki.jsp?energyterm=kJ/mole&tag=r21&monomerid=39823&enzyme=Beta-lactamase&column=ki&startPg=0&Increment=50&submit=Search

> <Ligand HET ID in PDB>


> <PDB ID(s) for Ligand-Target Complex>


> <PubChem CID of Ligand>
52939994

> <PubChem SID of Ligand>
123080131

> <ChEBI ID of Ligand>


> <ChEMBL ID of Ligand>


> <DrugBank ID of Ligand>


> <IUPHAR_GRAC ID of Ligand>


> <KEGG ID of Ligand>


> <ZINC ID of Ligand>


> <Number of Protein Chains in Target (bigger than 1 implies a multichain complex)>
1

> <BindingDB Target Chain Sequence>
MFKTTLCALLITASCSTFAAPQQINDIVHRTITPLIEQQKIPGMAVAVIYQGKPYYFTWGYADIAKKQPVTQQTLFELGSVSKTFTGVLGGDAIARGEIKLSDPTTKYWPELTAKQWNGITLLHLATYTAGGLPLQVPDEVKSSSDLLRFYQNWQPAWAPGTQRLYANSSIGLFGALAVKPSGLSFEQAMQTRVFQPLKLNHTWINVPPAEEKNYAWGYREGKAVHVSPGALDAEAYGVKSTIEDMARWVQSNLKPLDINEKTLQQGIQLAQSRYWQTGDMYQGLGWEMLDWPVNPDSIINGSDNKIALAARPVKAITPPTPAVRASWVHKTGATGGFGSYVAFIPEKELGIVMLANKNYPNPARVDAAWQILNALQ

> <PDB ID(s) of Target Chain>
1C3B,1FCO,1FSW,1FSY,1GA9,1IEL,1IEM,1KDS,1KDW,1KE0,1KE3,1KE4,1KVM,1L2S,1LL5,1LL9,1LLB,1MXO,1MY8,1XGI,1XGJ,2BLS,2HDQ,2HDR,2HDS,2HDU,2I72,2P9V,2PU2,2PU4,2R9W,2R9X,2RCX,3BLS,3BM6,3GQZ,3GR2,3GRJ,3GSG,3GTC,3GV9,3GVB,3O86,3O87,3O88,4E3I,4E3J,4E3K,4E3L,4E3M,4E3N,4E3O,4JXG,4JXS,4JXV,4JXW,4KG2,4KZ3,4KZ4,4KZ5,4KZ6,4KZ7,4KZ8,4KZ9,4KZA,4KZB,4LV0,4LV1,4LV2,4LV3,4OKP,4OLD,4OLG,6DPT,6DPX,6DPY,6DPZ,6T35,6T3D,6T5Y,6T7L,6TBW,6TPM,6WGQ,6YEN,6YEO,6YPD

> <UniProt (SwissProt) Recommended Name of Target Chain>
Beta-lactamase

> <UniProt (SwissProt) Entry Name of Target Chain>
AMPC_ECOLI

> <UniProt (SwissProt) Primary ID of Target Chain>
P00811

> <UniProt (SwissProt) Secondary ID(s) of Target Chain>
Q2M6F2

> <UniProt (SwissProt) Alternative ID(s) of Target Chain>


> <UniProt (TrEMBL) Submitted Name of Target Chain>


> <UniProt (TrEMBL) Entry Name of Target Chain>


> <UniProt (TrEMBL) Primary ID of Target Chain>


> <UniProt (TrEMBL) Secondary ID(s) of Target Chain>


> <UniProt (TrEMBL) Alternative ID(s) of Target Chain>


$$$$

  Mrv0541 11211416132D          

 18 19  0  0  0  0            999 V2000
   -1.6743   -1.9332    0.0000 B   0  0  0  0  0  0  0  0  0  0  0  0
   -0.2463    0.5511    0.0000 N   0  0  0  0  0  0  0  0  0  0  0  0
   -1.6743   -1.1065    0.0000 C   0  0  0  0  0  0  0  0  0  0  0  0
    0.4802    0.1461    0.0000 N   0  0  0  0  0  0  0  0  0  0  0  0
   -0.9603   -0.6931    0.0000 C   0  0  0  0  0  0  0  0  0  0  0  0
   -0.9603    0.1336    0.0000 C   0  0  0  0  0  0  0  0  0  0  0  0
    1.1942    0.5595    0.0000 C   0  0  0  0  0  0  0  0  0  0  0  0
   -2.3882   -2.3466    0.0000 O   0  0  0  0  0  0  0  0  0  0  0  0
   -0.9603   -2.3466    0.0000 O   0  0  0  0  0  0  0  0  0  0  0  0
    2.6096    1.3862    0.0000 C   0  0  0  0  0  0  0  0  0  0  0  0
    1.1816    1.3862    0.0000 C   0  0  0  0  0  0  0  0  0  0  0  0
    1.9081    0.1461    0.0000 C   0  0  0  0  0  0  0  0  0  0  0  0
    1.8956    1.7995    0.0000 C   0  0  0  0  0  0  0  0  0  0  0  0
    2.6221    0.5595    0.0000 C   0  0  0  0  0  0  0  0  0  0  0  0
    3.3361    1.7995    0.0000 O   0  0  0  0  0  0  0  0  0  0  0  0
   -2.3882   -0.6931    0.0000 C   0  0  0  0  0  0  0  0  0  0  0  0
   -2.3882    0.1336    0.0000 C   0  0  0  0  0  0  0  0  0  0  0  0
   -1.6743    0.5469    0.0000 C   0  0  0  0  0  0  0  0  0  0  0  0
  2  6  1  0  0  0  0
  3  1  1  0  0  0  0
  4  2  2  0  0  0  0
  5  3  2  0  0  0  0
  6  5  1  0  0  0  0
  4  7  1  4  0  0  0
  8  1  1  0  0  0  0
  9  1  1  0  0  0  0
 10 14  1  0  0  0  0
 11  7  2  0  0  0  0
 12  7  1  0  0  0  0
 13 11  1  0  0  0  0
 14 12  2  0  0  0  0
 15 10  1  0  0  0  0
 16  3  1  0  0  0  0
 17 16  2  0  0  0  0
 18 17  1  0  0  0  0
  6 18  2  0  0  0  0
 13 10  2  0  0  0  0
M  END
> <From>
www.bindingDB.org

> <BindingDB Reactant_set_id>
50275059

> <Ligand InChI>
InChI=1S/C12H11BN2O3/c16-12-6-4-10(5-7-12)14-15-11-3-1-2-9(8-11)13(17)18/h1-8,16-18H

> <Ligand InChI Key>
SCBQEMSFONUNEP-UHFFFAOYSA-N

> <BindingDB MonomerID>
50149778

> <BindingDB Ligand Name>
Aza-boronic acid derivative::CHEMBL179782

> <Target Name>
Beta-lactamase

> <Target Source Organism According to Curator or DataSource>
Escherichia coli

> <Ki (nM)>
 700

> <IC50 (nM)>


> <Kd (nM)>


> <EC50 (nM)>


> <kon (M-1-s-1)>


> <koff (s-1)>


> <pH>


> <Temp C>


> <Curation/DataSource>
ChEMBL

> <Article DOI>
10.1016/j.bmcl.2004.05.054

> <BindingDB Entry DOI>
10.7270/Q2XW4J8P

> <PMID>
15225711

> <PubChem AID>


> <Patent Number>


> <Authors>
Buzzoni, V; Blazquez, J; Ferrari, S; Calo, S; Venturelli, A; Costi, MP

> <Institution>
Universit&#224; degli Studi di Modena e Reggio Emilia

> <Link to Ligand in BindingDB>
http://www.bindingdb.org/bind/chemsearch/marvin/MolStructure.jsp?monomerid=50149778

> <Link to Ligand-Target Pair in BindingDB>
http://www.bindingdb.org/jsp/dbsearch/PrimarySearch_ki.jsp?energyterm=kJ/mole&tag=pol&polymerid=4401&target=Beta-lactamase&column=ki&startPg=0&Increment=50&submit=Search

> <Link to Ligand-Target Pair in BindingDB>
http://www.bindingdb.org/jsp/dbsearch/PrimarySearch_ki.jsp?energyterm=kJ/mole&tag=r21&monomerid=50149778&enzyme=Beta-lactamase&column=ki&startPg=0&Increment=50&submit=Search

> <Ligand HET ID in PDB>


> <PDB ID(s) for Ligand-Target Complex>


> <PubChem CID of Ligand>
18427400

> <PubChem SID of Ligand>
104037853

> <ChEBI ID of Ligand>


> <ChEMBL ID of Ligand>
CHEMBL179782

> <DrugBank ID of Ligand>


> <IUPHAR_GRAC ID of Ligand>


> <KEGG ID of Ligand>


> <ZINC ID of Ligand>


> <Number of Protein Chains in Target (bigger than 1 implies a multichain complex)>
1

> <BindingDB Target Chain Sequence>
MFKTTLCALLITASCSTFAAPQQINDIVHRTITPLIEQQKIPGMAVAVIYQGKPYYFTWGYADIAKKQPVTQQTLFELGSVSKTFTGVLGGDAIARGEIKLSDPTTKYWPELTAKQWNGITLLHLATYTAGGLPLQVPDEVKSSSDLLRFYQNWQPAWAPGTQRLYANSSIGLFGALAVKPSGLSFEQAMQTRVFQPLKLNHTWINVPPAEEKNYAWGYREGKAVHVSPGALDAEAYGVKSTIEDMARWVQSNLKPLDINEKTLQQGIQLAQSRYWQTGDMYQGLGWEMLDWPVNPDSIINGSDNKIALAARPVKAITPPTPAVRASWVHKTGATGGFGSYVAFIPEKELGIVMLANKNYPNPARVDAAWQILNALQ

> <PDB ID(s) of Target Chain>
1C3B,1FCO,1FSW,1FSY,1GA9,1IEL,1IEM,1KDS,1KDW,1KE0,1KE3,1KE4,1KVM,1L2S,1LL5,1LL9,1LLB,1MXO,1MY8,1XGI,1XGJ,2BLS,2HDQ,2HDR,2HDS,2HDU,2I72,2P9V,2PU2,2PU4,2R9W,2R9X,2RCX,3BLS,3BM6,3GQZ,3GR2,3GRJ,3GSG,3GTC,3GV9,3GVB,3O86,3O87,3O88,4E3I,4E3J,4E3K,4E3L,4E3M,4E3N,4E3O,4JXG,4JXS,4JXV,4JXW,4KG2,4KZ3,4KZ4,4KZ5,4KZ6,4KZ7,4KZ8,4KZ9,4KZA,4KZB,4LV0,4LV1,4LV2,4LV3,4OKP,4OLD,4OLG,6DPT,6DPX,6DPY,6DPZ,6T35,6T3D,6T5Y,6T7L,6TBW,6TPM,6WGQ,6YEN,6YEO,6YPD

> <UniProt (SwissProt) Recommended Name of Target Chain>
Beta-lactamase

> <UniProt (SwissProt) Entry Name of Target Chain>
AMPC_ECOLI

> <UniProt (SwissProt) Primary ID of Target Chain>
P00811

> <UniProt (SwissProt) Secondary ID(s) of Target Chain>
Q2M6F2

> <UniProt (SwissProt) Alternative ID(s) of Target Chain>


> <UniProt (TrEMBL) Submitted Name of Target Chain>


> <UniProt (TrEMBL) Entry Name of Target Chain>


> <UniProt (TrEMBL) Primary ID of Target Chain>


> <UniProt (TrEMBL) Secondary ID(s) of Target Chain>


> <UniProt (TrEMBL) Alternative ID(s) of Target Chain>


$$$$

  Mrv0541 11211416132D          

 32 35  0  0  0  0            999 V2000
    2.3989    1.0995    0.0000 C   0  0  0  0  0  0  0  0  0  0  0  0
    1.6867    0.6830    0.0000 N   0  0  0  0  0  0  0  0  0  0  0  0
    3.1152    0.6955    0.0000 C   0  0  0  0  0  0  0  0  0  0  0  0
    2.3906    1.9199    0.0000 C   0  0  0  0  0  0  0  0  0  0  0  0
   -1.8699   -0.5789    0.0000 N   0  0  0  0  0  0  0  0  0  0  0  0
    3.0985    2.3447    0.0000 C   0  0  0  0  0  0  0  0  0  0  0  0
    3.8232    1.9366    0.0000 C   0  0  0  0  0  0  0  0  0  0  0  0
    3.8232    1.1120    0.0000 C   0  0  0  0  0  0  0  0  0  0  0  0
   -3.9939   -2.6487    0.0000 B   0  0  0  0  0  0  0  0  0  0  0  0
   -1.1619   -0.1541    0.0000 C   0  0  0  0  0  0  0  0  0  0  0  0
    0.9745    1.0953    0.0000 N   0  0  0  0  0  0  0  0  0  0  0  0
   -2.5946   -0.1666    0.0000 N   0  0  0  0  0  0  0  0  0  0  0  0
   -4.0189   -1.8241    0.0000 C   0  0  0  0  0  0  0  0  0  0  0  0
   -0.4456   -0.5664    0.0000 C   0  0  0  0  0  0  0  0  0  0  0  0
    0.2624   -0.1499    0.0000 C   0  0  0  0  0  0  0  0  0  0  0  0
   -3.2984   -1.4160    0.0000 C   0  0  0  0  0  0  0  0  0  0  0  0
    0.2624    0.6747    0.0000 C   0  0  0  0  0  0  0  0  0  0  0  0
   -3.3067   -0.5872    0.0000 C   0  0  0  0  0  0  0  0  0  0  0  0
   -1.1702    0.6622    0.0000 C   0  0  0  0  0  0  0  0  0  0  0  0
   -4.7061   -3.0777    0.0000 O   0  0  0  0  0  0  0  0  0  0  0  0
   -3.2692   -3.0527    0.0000 O   0  0  0  0  0  0  0  0  0  0  0  0
    1.6742    2.3364    0.0000 O   0  0  0  0  0  0  0  0  0  0  0  0
    4.5270    2.3614    0.0000 O   0  0  0  0  0  0  0  0  0  0  0  0
   -0.4373   -1.3868    0.0000 O   0  0  0  0  0  0  0  0  0  0  0  0
   -0.4623    1.0828    0.0000 C   0  0  0  0  0  0  0  0  0  0  0  0
    3.1235   -0.1374    0.0000 C   0  0  0  0  0  0  0  0  0  0  0  0
   -4.7352   -1.4243    0.0000 C   0  0  0  0  0  0  0  0  0  0  0  0
    4.5395    0.7122    0.0000 C   0  0  0  0  0  0  0  0  0  0  0  0
   -4.7435   -0.5997    0.0000 C   0  0  0  0  0  0  0  0  0  0  0  0
   -4.0314   -0.1791    0.0000 C   0  0  0  0  0  0  0  0  0  0  0  0
    3.8399   -0.5372    0.0000 C   0  0  0  0  0  0  0  0  0  0  0  0
    4.5520   -0.1166    0.0000 C   0  0  0  0  0  0  0  0  0  0  0  0
  2  1  1  0  0  0  0
  3  1  2  0  0  0  0
  4  1  1  0  0  0  0
  5 10  1  0  0  0  0
  6  4  2  0  0  0  0
  7  6  1  0  0  0  0
  8  3  1  0  0  0  0
  9 13  1  0  0  0  0
 10 19  2  0  0  0  0
 11  2  2  0  0  0  0
 12  5  2  0  0  0  0
 13 16  2  0  0  0  0
 14 15  2  0  0  0  0
 15 17  1  0  0  0  0
 16 18  1  0  0  0  0
 11 17  1  4  0  0  0
 12 18  1  4  0  0  0
 19 25  1  0  0  0  0
 20  9  1  0  0  0  0
 21  9  1  0  0  0  0
 22  4  1  0  0  0  0
 23  7  1  0  0  0  0
 24 14  1  0  0  0  0
 25 17  2  0  0  0  0
 26  3  1  0  0  0  0
 27 29  2  0  0  0  0
 28  8  1  0  0  0  0
 29 30  1  0  0  0  0
 30 18  2  0  0  0  0
 31 26  2  0  0  0  0
 32 31  1  0  0  0  0
  8  7  2  0  0  0  0
 28 32  2  0  0  0  0
 14 10  1  0  0  0  0
 13 27  1  0  0  0  0
M  END
> <From>
www.bindingDB.org

> <BindingDB Reactant_set_id>
50275071

> <Ligand InChI>
InChI=1S/C22H17BN4O5/c28-19-12-21(30)22(17-7-2-1-6-16(17)19)27-25-15-8-9-18(20(29)11-15)26-24-14-5-3-4-13(10-14)23(31)32/h1-12,28-32H

> <Ligand InChI Key>
SVJNWFARCLQYIC-UHFFFAOYSA-N

> <BindingDB MonomerID>
50149788

> <BindingDB Ligand Name>
Aza-boronic acid derivative::CHEMBL182522

> <Target Name>
Beta-lactamase

> <Target Source Organism According to Curator or DataSource>
Escherichia coli

> <Ki (nM)>
 700

> <IC50 (nM)>


> <Kd (nM)>


> <EC50 (nM)>


> <kon (M-1-s-1)>


> <koff (s-1)>


> <pH>


> <Temp C>


> <Curation/DataSource>
ChEMBL

> <Article DOI>
10.1016/j.bmcl.2004.05.054

> <BindingDB Entry DOI>
10.7270/Q2XW4J8P

> <PMID>
15225711

> <PubChem AID>


> <Patent Number>


> <Authors>
Buzzoni, V; Blazquez, J; Ferrari, S; Calo, S; Venturelli, A; Costi, MP

> <Institution>
Universit&#224; degli Studi di Modena e Reggio Emilia

> <Link to Ligand in BindingDB>
http://www.bindingdb.org/bind/chemsearch/marvin/MolStructure.jsp?monomerid=50149788

> <Link to Ligand-Target Pair in BindingDB>
http://www.bindingdb.org/jsp/dbsearch/PrimarySearch_ki.jsp?energyterm=kJ/mole&tag=pol&polymerid=4401&target=Beta-lactamase&column=ki&startPg=0&Increment=50&submit=Search

> <Link to Ligand-Target Pair in BindingDB>
http://www.bindingdb.org/jsp/dbsearch/PrimarySearch_ki.jsp?energyterm=kJ/mole&tag=r21&monomerid=50149788&enzyme=Beta-lactamase&column=ki&startPg=0&Increment=50&submit=Search

> <Ligand HET ID in PDB>


> <PDB ID(s) for Ligand-Target Complex>


> <PubChem CID of Ligand>
44392737

> <PubChem SID of Ligand>
104037863

> <ChEBI ID of Ligand>


> <ChEMBL ID of Ligand>
CHEMBL182522

> <DrugBank ID of Ligand>


> <IUPHAR_GRAC ID of Ligand>


> <KEGG ID of Ligand>


> <ZINC ID of Ligand>


> <Number of Protein Chains in Target (bigger than 1 implies a multichain complex)>
1

> <BindingDB Target Chain Sequence>
MFKTTLCALLITASCSTFAAPQQINDIVHRTITPLIEQQKIPGMAVAVIYQGKPYYFTWGYADIAKKQPVTQQTLFELGSVSKTFTGVLGGDAIARGEIKLSDPTTKYWPELTAKQWNGITLLHLATYTAGGLPLQVPDEVKSSSDLLRFYQNWQPAWAPGTQRLYANSSIGLFGALAVKPSGLSFEQAMQTRVFQPLKLNHTWINVPPAEEKNYAWGYREGKAVHVSPGALDAEAYGVKSTIEDMARWVQSNLKPLDINEKTLQQGIQLAQSRYWQTGDMYQGLGWEMLDWPVNPDSIINGSDNKIALAARPVKAITPPTPAVRASWVHKTGATGGFGSYVAFIPEKELGIVMLANKNYPNPARVDAAWQILNALQ

> <PDB ID(s) of Target Chain>
1C3B,1FCO,1FSW,1FSY,1GA9,1IEL,1IEM,1KDS,1KDW,1KE0,1KE3,1KE4,1KVM,1L2S,1LL5,1LL9,1LLB,1MXO,1MY8,1XGI,1XGJ,2BLS,2HDQ,2HDR,2HDS,2HDU,2I72,2P9V,2PU2,2PU4,2R9W,2R9X,2RCX,3BLS,3BM6,3GQZ,3GR2,3GRJ,3GSG,3GTC,3GV9,3GVB,3O86,3O87,3O88,4E3I,4E3J,4E3K,4E3L,4E3M,4E3N,4E3O,4JXG,4JXS,4JXV,4JXW,4KG2,4KZ3,4KZ4,4KZ5,4KZ6,4KZ7,4KZ8,4KZ9,4KZA,4KZB,4LV0,4LV1,4LV2,4LV3,4OKP,4OLD,4OLG,6DPT,6DPX,6DPY,6DPZ,6T35,6T3D,6T5Y,6T7L,6TBW,6TPM,6WGQ,6YEN,6YEO,6YPD

> <UniProt (SwissProt) Recommended Name of Target Chain>
Beta-lactamase

> <UniProt (SwissProt) Entry Name of Target Chain>
AMPC_ECOLI

> <UniProt (SwissProt) Primary ID of Target Chain>
P00811

> <UniProt (SwissProt) Secondary ID(s) of Target Chain>
Q2M6F2

> <UniProt (SwissProt) Alternative ID(s) of Target Chain>


> <UniProt (TrEMBL) Submitted Name of Target Chain>


> <UniProt (TrEMBL) Entry Name of Target Chain>


> <UniProt (TrEMBL) Primary ID of Target Chain>


> <UniProt (TrEMBL) Secondary ID(s) of Target Chain>


> <UniProt (TrEMBL) Alternative ID(s) of Target Chain>


$$$$

  Mrv0541 11231414582D          

 17 19  0  0  0  0            999 V2000
   -1.3471    0.5212    0.0000 C   0  0  0  0  0  0  0  0  0  0  0  0
   -1.3482   -0.3055    0.0000 C   0  0  0  0  0  0  0  0  0  0  0  0
   -0.6341   -0.7181    0.0000 C   0  0  0  0  0  0  0  0  0  0  0  0
   -0.6358    0.9338    0.0000 C   0  0  0  0  0  0  0  0  0  0  0  0
    0.0785    0.5246    0.0000 C   0  0  0  0  0  0  0  0  0  0  0  0
    0.0786   -0.3010    0.0000 C   0  0  0  0  0  0  0  0  0  0  0  0
    0.8640   -0.5561    0.0000 C   0  0  0  0  0  0  0  0  0  0  0  0
    1.3492    0.1119    0.0000 O   0  0  0  0  0  0  0  0  0  0  0  0
    0.8638    0.7798    0.0000 B   0  0  0  0  0  0  0  0  0  0  0  0
    1.1185    1.5640    0.0000 O   0  0  0  0  0  0  0  0  0  0  0  0
   -2.0613    0.9333    0.0000 O   0  0  0  0  0  0  0  0  0  0  0  0
   -2.7753    0.5206    0.0000 C   0  0  0  0  0  0  0  0  0  0  0  0
   -3.4875    0.9370    0.0000 C   0  0  0  0  0  0  0  0  0  0  0  0
   -4.2010    0.5251    0.0000 C   0  0  0  0  0  0  0  0  0  0  0  0
   -4.2012   -0.3003    0.0000 C   0  0  0  0  0  0  0  0  0  0  0  0
   -3.4818   -0.7121    0.0000 C   0  0  0  0  0  0  0  0  0  0  0  0
   -2.7714   -0.2978    0.0000 C   0  0  0  0  0  0  0  0  0  0  0  0
  7  8  1  0  0  0  0
  8  9  1  0  0  0  0
  9  5  1  0  0  0  0
  4  1  2  0  0  0  0
  9 10  1  0  0  0  0
  5  6  2  0  0  0  0
  1 11  1  0  0  0  0
 11 12  1  0  0  0  0
  2  3  2  0  0  0  0
 12 13  2  0  0  0  0
  3  6  1  0  0  0  0
 13 14  1  0  0  0  0
  1  2  1  0  0  0  0
 14 15  2  0  0  0  0
  5  4  1  0  0  0  0
 15 16  1  0  0  0  0
  6  7  1  0  0  0  0
 16 17  2  0  0  0  0
 17 12  1  0  0  0  0
M  END
> <From>
www.bindingDB.org

> <BindingDB Reactant_set_id>
50629857

> <Ligand InChI>
InChI=1S/C13H11BO3/c15-14-13-8-12(7-6-10(13)9-16-14)17-11-4-2-1-3-5-11/h1-8,15H,9H2

> <Ligand InChI Key>
ZCYIVNHDSGDVRZ-UHFFFAOYSA-N

> <BindingDB MonomerID>
50339846

> <BindingDB Ligand Name>
6-phenoxybenzo[c][1,2]oxaborol-1(3H)-ol::CHEMBL1761091

> <Target Name>
Beta-lactamase

> <Target Source Organism According to Curator or DataSource>
Enterobacter cloacae

> <Ki (nM)>
 710

> <IC50 (nM)>


> <Kd (nM)>


> <EC50 (nM)>


> <kon (M-1-s-1)>


> <koff (s-1)>


> <pH>


> <Temp C>


> <Curation/DataSource>
ChEMBL

> <Article DOI>
10.1016/j.bmcl.2011.02.024

> <BindingDB Entry DOI>
10.7270/Q2G44QK5

> <PMID>
21392987

> <PubChem AID>


> <Patent Number>


> <Authors>
Xia, Y; Cao, K; Zhou, Y; Alley, MR; Rock, F; Mohan, M; Meewan, M; Baker, SJ; Lux, S; Ding, CZ; Jia, G; Kully, M; Plattner, JJ

> <Institution>
Anacor Pharmaceuticals Inc

> <Link to Ligand in BindingDB>
http://www.bindingdb.org/bind/chemsearch/marvin/MolStructure.jsp?monomerid=50339846

> <Link to Ligand-Target Pair in BindingDB>
http://www.bindingdb.org/jsp/dbsearch/PrimarySearch_ki.jsp?energyterm=kJ/mole&tag=pol&polymerid=50002394&target=Beta-lactamase&column=ki&startPg=0&Increment=50&submit=Search

> <Link to Ligand-Target Pair in BindingDB>
http://www.bindingdb.org/jsp/dbsearch/PrimarySearch_ki.jsp?energyterm=kJ/mole&tag=r21&monomerid=50339846&enzyme=Beta-lactamase&column=ki&startPg=0&Increment=50&submit=Search

> <Ligand HET ID in PDB>


> <PDB ID(s) for Ligand-Target Complex>


> <PubChem CID of Ligand>
54587088

> <PubChem SID of Ligand>
131342782

> <ChEBI ID of Ligand>


> <ChEMBL ID of Ligand>
CHEMBL1761091

> <DrugBank ID of Ligand>


> <IUPHAR_GRAC ID of Ligand>


> <KEGG ID of Ligand>


> <ZINC ID of Ligand>


> <Number of Protein Chains in Target (bigger than 1 implies a multichain complex)>
1

> <BindingDB Target Chain Sequence>
MMRKSLCCALLLGISCSALATPVSEKQLAEVVANTITPLMKAQSVPGMAVAVIYQGKPHYYTFGKADIAANKPVTPQTLFELGSISKTFTGVLGGDAIARGEISLDDAVTRYWPQLTGKQWQGIRMLDLATYTAGGLPLQVPDEVTDNASLLRFYQNWQPQWKPGTTRLYANASIGLFGALAVKPSGMPYEQAMTTRVLKPLKLDHTWINVPKAEEAHYAWGYRDGKAVRVSPGMLDAQAYGVKTNVQDMANWVMANMAPENVADASLKQGIALAQSRYWRIGSMYQGLGWEMLNWPVEANTVVEGSDSKVALAPLPVAEVNPPAPPVKASWVHKTGSTGGFGSYVAFIPEKQIGIVMLANTSYPNPARVEAAYHILEALQ

> <PDB ID(s) of Target Chain>
1XX2,2Q9M,2Q9N,7TI1

> <UniProt (SwissProt) Recommended Name of Target Chain>
Beta-lactamase

> <UniProt (SwissProt) Entry Name of Target Chain>
AMPC_ENTCL

> <UniProt (SwissProt) Primary ID of Target Chain>
P05364

> <UniProt (SwissProt) Secondary ID(s) of Target Chain>


> <UniProt (SwissProt) Alternative ID(s) of Target Chain>


> <UniProt (TrEMBL) Submitted Name of Target Chain>


> <UniProt (TrEMBL) Entry Name of Target Chain>


> <UniProt (TrEMBL) Primary ID of Target Chain>


> <UniProt (TrEMBL) Secondary ID(s) of Target Chain>


> <UniProt (TrEMBL) Alternative ID(s) of Target Chain>


$$$$

  Mrv0541 11191401012D          

 22 23  0  0  0  0            999 V2000
   -0.7396    1.4778    0.0000 C   0  0  0  0  0  0  0  0  0  0  0  0
   -1.5646    1.4778    0.0000 C   0  0  0  0  0  0  0  0  0  0  0  0
   -1.9771    2.1922    0.0000 C   0  0  0  0  0  0  0  0  0  0  0  0
   -1.5646    2.9067    0.0000 C   0  0  0  0  0  0  0  0  0  0  0  0
   -0.7396    2.9067    0.0000 C   0  0  0  0  0  0  0  0  0  0  0  0
   -0.3271    2.1922    0.0000 C   0  0  0  0  0  0  0  0  0  0  0  0
   -1.9771    3.6212    0.0000 B   0  0  0  0  0  0  0  0  0  0  0  0
   -2.8021    3.6212    0.0000 O   0  0  0  0  0  0  0  0  0  0  0  0
   -1.5646    4.3356    0.0000 O   0  0  0  0  0  0  0  0  0  0  0  0
    0.4979    2.1922    0.0000 N   0  0  0  0  0  0  0  0  0  0  0  0
    0.9104    1.4778    0.0000 S   0  0  0  0  0  0  0  0  0  0  0  0
    0.4979    0.7633    0.0000 O   0  0  0  0  0  0  0  0  0  0  0  0
    1.7354    1.4778    0.0000 C   0  0  0  0  0  0  0  0  0  0  0  0
    1.3229    2.1923    0.0000 O   0  0  0  0  0  0  0  0  0  0  0  0
    2.9729    2.1923    0.0000 C   0  0  0  0  0  0  0  0  0  0  0  0
    2.1479    2.1923    0.0000 C   0  0  0  0  0  0  0  0  0  0  0  0
    2.1479    0.7633    0.0000 C   0  0  0  0  0  0  0  0  0  0  0  0
    2.9729    0.7634    0.0000 C   0  0  0  0  0  0  0  0  0  0  0  0
    3.3854    1.4778    0.0000 C   0  0  0  0  0  0  0  0  0  0  0  0
    4.2104    1.4778    0.0000 N   0  0  0  0  0  0  0  0  0  0  0  0
    4.6229    2.1923    0.0000 O   0  0  0  0  0  0  0  0  0  0  0  0
    4.6229    0.7634    0.0000 O   0  0  0  0  0  0  0  0  0  0  0  0
  1  2  2  0  0  0  0
  2  3  1  0  0  0  0
  3  4  2  0  0  0  0
  4  5  1  0  0  0  0
  5  6  2  0  0  0  0
  1  6  1  0  0  0  0
  4  7  1  0  0  0  0
  7  8  1  0  0  0  0
  7  9  1  0  0  0  0
  6 10  1  0  0  0  0
 10 11  1  0  0  0  0
 11 12  2  0  0  0  0
 11 13  1  0  0  0  0
 11 14  2  0  0  0  0
 16 13  2  0  0  0  0
 13 17  1  0  0  0  0
 15 16  1  0  0  0  0
 17 18  2  0  0  0  0
 18 19  1  0  0  0  0
 15 19  2  0  0  0  0
 19 20  1  0  0  0  0
 20 21  2  0  0  0  0
 20 22  2  0  0  0  0
M  END
> <From>
www.bindingDB.org

> <BindingDB Reactant_set_id>
74840

> <Ligand InChI>
InChI=1S/C12H11BN2O6S/c16-13(17)9-2-1-3-10(8-9)14-22(20,21)12-6-4-11(5-7-12)15(18)19/h1-8,14,16-17H

> <Ligand InChI Key>
OZKOXPWVPDOPHJ-UHFFFAOYSA-N

> <BindingDB MonomerID>
39854

> <BindingDB Ligand Name>
Amide and sulfonamide derivatives, 38

> <Target Name>
Beta-lactamase

> <Target Source Organism According to Curator or DataSource>
Escherichia coli

> <Ki (nM)>
 7.7e+2

> <IC50 (nM)>


> <Kd (nM)>


> <EC50 (nM)>


> <kon (M-1-s-1)>


> <koff (s-1)>


> <pH>
7

> <Temp C>


> <Curation/DataSource>
Curated from the literature by BindingDB

> <Article DOI>
10.1016/S1074-5521(01)00034-5

> <BindingDB Entry DOI>
10.7270/Q27M06BZ

> <PMID>
11410378

> <PubChem AID>
aid1799472

> <Patent Number>


> <Authors>
Tondi, D; Powers, RA; Caselli, E; Negri, MC; Bl&aacute;zquez, J; Costi, MP; Shoichet, BK

> <Institution>
Northwestern University

> <Link to Ligand in BindingDB>
http://www.bindingdb.org/bind/chemsearch/marvin/MolStructure.jsp?monomerid=39854

> <Link to Ligand-Target Pair in BindingDB>
http://www.bindingdb.org/jsp/dbsearch/PrimarySearch_ki.jsp?energyterm=kJ/mole&tag=pol&polymerid=4401&target=Beta-lactamase&column=ki&startPg=0&Increment=50&submit=Search

> <Link to Ligand-Target Pair in BindingDB>
http://www.bindingdb.org/jsp/dbsearch/PrimarySearch_ki.jsp?energyterm=kJ/mole&tag=r21&monomerid=39854&enzyme=Beta-lactamase&column=ki&startPg=0&Increment=50&submit=Search

> <Ligand HET ID in PDB>


> <PDB ID(s) for Ligand-Target Complex>


> <PubChem CID of Ligand>
52940010

> <PubChem SID of Ligand>
123080162

> <ChEBI ID of Ligand>


> <ChEMBL ID of Ligand>


> <DrugBank ID of Ligand>


> <IUPHAR_GRAC ID of Ligand>


> <KEGG ID of Ligand>
C06058

> <ZINC ID of Ligand>


> <Number of Protein Chains in Target (bigger than 1 implies a multichain complex)>
1

> <BindingDB Target Chain Sequence>
MFKTTLCALLITASCSTFAAPQQINDIVHRTITPLIEQQKIPGMAVAVIYQGKPYYFTWGYADIAKKQPVTQQTLFELGSVSKTFTGVLGGDAIARGEIKLSDPTTKYWPELTAKQWNGITLLHLATYTAGGLPLQVPDEVKSSSDLLRFYQNWQPAWAPGTQRLYANSSIGLFGALAVKPSGLSFEQAMQTRVFQPLKLNHTWINVPPAEEKNYAWGYREGKAVHVSPGALDAEAYGVKSTIEDMARWVQSNLKPLDINEKTLQQGIQLAQSRYWQTGDMYQGLGWEMLDWPVNPDSIINGSDNKIALAARPVKAITPPTPAVRASWVHKTGATGGFGSYVAFIPEKELGIVMLANKNYPNPARVDAAWQILNALQ

> <PDB ID(s) of Target Chain>
1C3B,1FCO,1FSW,1FSY,1GA9,1IEL,1IEM,1KDS,1KDW,1KE0,1KE3,1KE4,1KVM,1L2S,1LL5,1LL9,1LLB,1MXO,1MY8,1XGI,1XGJ,2BLS,2HDQ,2HDR,2HDS,2HDU,2I72,2P9V,2PU2,2PU4,2R9W,2R9X,2RCX,3BLS,3BM6,3GQZ,3GR2,3GRJ,3GSG,3GTC,3GV9,3GVB,3O86,3O87,3O88,4E3I,4E3J,4E3K,4E3L,4E3M,4E3N,4E3O,4JXG,4JXS,4JXV,4JXW,4KG2,4KZ3,4KZ4,4KZ5,4KZ6,4KZ7,4KZ8,4KZ9,4KZA,4KZB,4LV0,4LV1,4LV2,4LV3,4OKP,4OLD,4OLG,6DPT,6DPX,6DPY,6DPZ,6T35,6T3D,6T5Y,6T7L,6TBW,6TPM,6WGQ,6YEN,6YEO,6YPD

> <UniProt (SwissProt) Recommended Name of Target Chain>
Beta-lactamase

> <UniProt (SwissProt) Entry Name of Target Chain>
AMPC_ECOLI

> <UniProt (SwissProt) Primary ID of Target Chain>
P00811

> <UniProt (SwissProt) Secondary ID(s) of Target Chain>
Q2M6F2

> <UniProt (SwissProt) Alternative ID(s) of Target Chain>


> <UniProt (TrEMBL) Submitted Name of Target Chain>


> <UniProt (TrEMBL) Entry Name of Target Chain>


> <UniProt (TrEMBL) Primary ID of Target Chain>


> <UniProt (TrEMBL) Secondary ID(s) of Target Chain>


> <UniProt (TrEMBL) Alternative ID(s) of Target Chain>


$$$$

  Mrv0541 11231401522D          

 12 13  0  0  0  0            999 V2000
    5.1574   -5.4794    0.0000 C   0  0  0  0  0  0  0  0  0  0  0  0
    5.6453   -4.8123    0.0000 C   0  0  0  0  0  0  0  0  0  0  0  0
    5.6387   -6.1531    0.0000 C   0  0  0  0  0  0  0  0  0  0  0  0
    4.3244   -5.4760    0.0000 B   0  0  0  0  0  0  0  0  0  0  0  0
    6.4318   -5.0778    0.0000 S   0  0  0  0  0  0  0  0  0  0  0  0
    6.4252   -5.9041    0.0000 C   0  0  0  0  0  0  0  0  0  0  0  0
    3.9063   -6.1962    0.0000 O   0  0  0  0  0  0  0  0  0  0  0  0
    3.9162   -4.7525    0.0000 O   0  0  0  0  0  0  0  0  0  0  0  0
    5.4594   -6.9529    0.0000 C   0  0  0  0  0  0  0  0  0  0  0  0
    7.0326   -6.4551    0.0000 C   0  0  0  0  0  0  0  0  0  0  0  0
    6.0668   -7.5071    0.0000 C   0  0  0  0  0  0  0  0  0  0  0  0
    6.8533   -7.2582    0.0000 C   0  0  0  0  0  0  0  0  0  0  0  0
  2  1  2  0  0  0  0
  3  1  1  0  0  0  0
  4  1  1  0  0  0  0
  5  2  1  0  0  0  0
  6  3  1  0  0  0  0
  7  4  1  0  0  0  0
  8  4  1  0  0  0  0
  9  3  2  0  0  0  0
 10  6  2  0  0  0  0
 11  9  1  0  0  0  0
 12 11  2  0  0  0  0
  6  5  1  0  0  0  0
 10 12  1  0  0  0  0
M  END
> <From>
www.bindingDB.org

> <BindingDB Reactant_set_id>
50117294

> <Ligand InChI>
InChI=1S/C8H7BO2S/c10-9(11)7-5-12-8-4-2-1-3-6(7)8/h1-5,10-11H

> <Ligand InChI Key>
QVANIYYVZZLQJP-UHFFFAOYSA-N

> <BindingDB MonomerID>
50067907

> <BindingDB Ligand Name>
CHEMBL342173::benzo[b]thiophene3-boronic acid

> <Target Name>
Beta-lactamase

> <Target Source Organism According to Curator or DataSource>
Escherichia coli

> <Ki (nM)>
 780.0

> <IC50 (nM)>


> <Kd (nM)>


> <EC50 (nM)>


> <kon (M-1-s-1)>


> <koff (s-1)>


> <pH>


> <Temp C>


> <Curation/DataSource>
ChEMBL

> <Article DOI>
10.1021/jm980343w

> <BindingDB Entry DOI>
10.7270/Q22N51FX

> <PMID>
9804697

> <PubChem AID>


> <Patent Number>


> <Authors>
Weston, GS; Blazquez, J; Baquero, F; Shoichet, BK

> <Institution>
Northwestern University Medical School

> <Link to Ligand in BindingDB>
http://www.bindingdb.org/bind/chemsearch/marvin/MolStructure.jsp?monomerid=50067907

> <Link to Ligand-Target Pair in BindingDB>
http://www.bindingdb.org/jsp/dbsearch/PrimarySearch_ki.jsp?energyterm=kJ/mole&tag=pol&polymerid=4401&target=Beta-lactamase&column=ki&startPg=0&Increment=50&submit=Search

> <Link to Ligand-Target Pair in BindingDB>
http://www.bindingdb.org/jsp/dbsearch/PrimarySearch_ki.jsp?energyterm=kJ/mole&tag=r21&monomerid=50067907&enzyme=Beta-lactamase&column=ki&startPg=0&Increment=50&submit=Search

> <Ligand HET ID in PDB>


> <PDB ID(s) for Ligand-Target Complex>


> <PubChem CID of Ligand>
2776344

> <PubChem SID of Ligand>
103962333

> <ChEBI ID of Ligand>


> <ChEMBL ID of Ligand>
CHEMBL342173

> <DrugBank ID of Ligand>


> <IUPHAR_GRAC ID of Ligand>


> <KEGG ID of Ligand>


> <ZINC ID of Ligand>


> <Number of Protein Chains in Target (bigger than 1 implies a multichain complex)>
1

> <BindingDB Target Chain Sequence>
MFKTTLCALLITASCSTFAAPQQINDIVHRTITPLIEQQKIPGMAVAVIYQGKPYYFTWGYADIAKKQPVTQQTLFELGSVSKTFTGVLGGDAIARGEIKLSDPTTKYWPELTAKQWNGITLLHLATYTAGGLPLQVPDEVKSSSDLLRFYQNWQPAWAPGTQRLYANSSIGLFGALAVKPSGLSFEQAMQTRVFQPLKLNHTWINVPPAEEKNYAWGYREGKAVHVSPGALDAEAYGVKSTIEDMARWVQSNLKPLDINEKTLQQGIQLAQSRYWQTGDMYQGLGWEMLDWPVNPDSIINGSDNKIALAARPVKAITPPTPAVRASWVHKTGATGGFGSYVAFIPEKELGIVMLANKNYPNPARVDAAWQILNALQ

> <PDB ID(s) of Target Chain>
1C3B,1FCO,1FSW,1FSY,1GA9,1IEL,1IEM,1KDS,1KDW,1KE0,1KE3,1KE4,1KVM,1L2S,1LL5,1LL9,1LLB,1MXO,1MY8,1XGI,1XGJ,2BLS,2HDQ,2HDR,2HDS,2HDU,2I72,2P9V,2PU2,2PU4,2R9W,2R9X,2RCX,3BLS,3BM6,3GQZ,3GR2,3GRJ,3GSG,3GTC,3GV9,3GVB,3O86,3O87,3O88,4E3I,4E3J,4E3K,4E3L,4E3M,4E3N,4E3O,4JXG,4JXS,4JXV,4JXW,4KG2,4KZ3,4KZ4,4KZ5,4KZ6,4KZ7,4KZ8,4KZ9,4KZA,4KZB,4LV0,4LV1,4LV2,4LV3,4OKP,4OLD,4OLG,6DPT,6DPX,6DPY,6DPZ,6T35,6T3D,6T5Y,6T7L,6TBW,6TPM,6WGQ,6YEN,6YEO,6YPD

> <UniProt (SwissProt) Recommended Name of Target Chain>
Beta-lactamase

> <UniProt (SwissProt) Entry Name of Target Chain>
AMPC_ECOLI

> <UniProt (SwissProt) Primary ID of Target Chain>
P00811

> <UniProt (SwissProt) Secondary ID(s) of Target Chain>
Q2M6F2

> <UniProt (SwissProt) Alternative ID(s) of Target Chain>


> <UniProt (TrEMBL) Submitted Name of Target Chain>


> <UniProt (TrEMBL) Entry Name of Target Chain>


> <UniProt (TrEMBL) Primary ID of Target Chain>


> <UniProt (TrEMBL) Secondary ID(s) of Target Chain>


> <UniProt (TrEMBL) Alternative ID(s) of Target Chain>


$$$$

  Mrv0541 01081602572D          

 20 23  0  0  0  0            999 V2000
    5.4509    2.4696    0.0000 S   0  0  0  0  0  0  0  0  0  0  0  0
    4.7835    1.9847    0.0000 C   0  0  0  0  0  0  0  0  0  0  0  0
    5.0384    1.2001    0.0000 N   0  0  0  0  0  0  0  0  0  0  0  0
    5.8634    1.2001    0.0000 C   0  0  0  0  0  0  0  0  0  0  0  0
    6.1183    1.9847    0.0000 C   0  0  0  0  0  0  0  0  0  0  0  0
    4.7834    0.4155    0.0000 N   0  0  0  0  0  0  0  0  0  0  0  0
    5.4509   -0.0694    0.0000 C   0  0  0  0  0  0  0  0  0  0  0  0
    6.1183    0.4155    0.0000 C   0  0  0  0  0  0  0  0  0  0  0  0
    5.4509   -0.8944    0.0000 C   0  0  0  0  0  0  0  0  0  0  0  0
    6.1653   -1.3069    0.0000 C   0  0  0  0  0  0  0  0  0  0  0  0
    6.9903   -1.3069    0.0000 C   0  0  0  0  0  0  0  0  0  0  0  0
    6.1653   -2.1319    0.0000 C   0  0  0  0  0  0  0  0  0  0  0  0
    6.9903   -2.1319    0.0000 N   0  0  0  0  0  0  0  0  0  0  0  0
    7.7749   -2.3868    0.0000 C   0  0  0  0  0  0  0  0  0  0  0  0
    8.2598   -1.7194    0.0000 C   0  0  0  0  0  0  0  0  0  0  0  0
    7.7750   -1.0520    0.0000 S   0  0  0  0  0  0  0  0  0  0  0  0
    5.5820   -2.7153    0.0000 O   0  0  0  0  0  0  0  0  0  0  0  0
    8.0298   -3.1715    0.0000 C   0  0  0  0  0  0  0  0  0  0  0  0
    8.8368   -3.3430    0.0000 O   0  0  0  0  0  0  0  0  0  0  0  0
    7.4778   -3.7846    0.0000 O   0  5  0  0  0  0  0  0  0  0  0  0
  1  2  1  0  0  0  0
  2  3  1  0  0  0  0
  4  5  1  0  0  0  0
  1  5  1  0  0  0  0
  3  6  4  0  0  0  0
  4  3  4  0  0  0  0
  4  8  4  0  0  0  0
  6  7  4  0  0  0  0
  7  8  4  0  0  0  0
  7  9  1  0  0  0  0
  9 10  2  0  0  0  0
 10 11  1  0  0  0  0
 10 12  1  0  0  0  0
 12 13  1  0  0  0  0
 13 14  1  0  0  0  0
 11 13  1  0  0  0  0
 11 16  1  0  0  0  0
 14 15  2  0  0  0  0
 15 16  1  0  0  0  0
 12 17  2  0  0  0  0
 14 18  1  0  0  0  0
 18 19  2  0  0  0  0
 18 20  1  0  0  0  0
M  CHG  1  20  -1
M  END
> <From>
www.bindingDB.org

> <BindingDB Reactant_set_id>
293380

> <Ligand InChI>
InChI=1S/C12H9N3O3S2/c16-10-8(11-15(10)9(4-20-11)12(17)18)2-6-1-7-3-19-5-14(7)13-6/h1-2,4,11H,3,5H2,(H,17,18)/p-1/b8-2-

> <Ligand InChI Key>
PIQJFYXOGLAPEL-WAPJZHGLSA-M

> <BindingDB MonomerID>
152732

> <BindingDB Ligand Name>
Penem 1

> <Target Name>
Beta-lactamase

> <Target Source Organism According to Curator or DataSource>


> <Ki (nM)>
 8e+2

> <IC50 (nM)>


> <Kd (nM)>


> <EC50 (nM)>


> <kon (M-1-s-1)>


> <koff (s-1)>


> <pH>
7.2

> <Temp C>


> <Curation/DataSource>
Curated from the literature by BindingDB

> <Article DOI>
10.1021/acs.biochem.5b00698

> <BindingDB Entry DOI>
10.7270/Q29W0D7G

> <PMID>
26237118

> <PubChem AID>
aid1801074

> <Patent Number>


> <Authors>
Hazra, S; Kurz, SG; Wolff, K; Nguyen, L; Bonomo, RA; Blanchard, JS

> <Institution>
Indian Institute of Technology

> <Link to Ligand in BindingDB>
http://www.bindingdb.org/bind/chemsearch/marvin/MolStructure.jsp?monomerid=152732

> <Link to Ligand-Target Pair in BindingDB>
http://www.bindingdb.org/jsp/dbsearch/PrimarySearch_ki.jsp?energyterm=kJ/mole&tag=pol&polymerid=7006&target=Beta-lactamase&column=ki&startPg=0&Increment=50&submit=Search

> <Link to Ligand-Target Pair in BindingDB>
http://www.bindingdb.org/jsp/dbsearch/PrimarySearch_ki.jsp?energyterm=kJ/mole&tag=r21&monomerid=152732&enzyme=Beta-lactamase&column=ki&startPg=0&Increment=50&submit=Search

> <Ligand HET ID in PDB>


> <PDB ID(s) for Ligand-Target Complex>


> <PubChem CID of Ligand>
91937860

> <PubChem SID of Ligand>
252826982

> <ChEBI ID of Ligand>


> <ChEMBL ID of Ligand>


> <DrugBank ID of Ligand>


> <IUPHAR_GRAC ID of Ligand>


> <KEGG ID of Ligand>


> <ZINC ID of Ligand>


> <Number of Protein Chains in Target (bigger than 1 implies a multichain complex)>
1

> <BindingDB Target Chain Sequence>
MRNRGFGRRELLVAMAMLVSVTGCARHASGARPASTTLPAGADLADRFAELERRYDARLGVYVPATGTTA
AIEYRADERFAFCSTFKAPLVAAVLHQNPLTHLDKLITYTSDDIRSISPVAQQHVQTGMTIGQLCDAAIR
YSDGTAANLLLADLGGPGGGTAAFTGYLRSLGDTVSRLDAEEPELNRDPPGDERDTTTPHAIALVLQQLV
LGNALPPDKRALLTDWMARNTTGAKRIRAGFPADWKVIDKTGTGDYGRANDIAVVWSPTGVPYVVAVMSD
RAGGGYDAEPREALLAEAATCVAGVLA

> <PDB ID(s) of Target Chain>
2GDN,3CG5,3DWZ,3IQA,3M6B,3M6H,3ZHH,4DF6,4Q8I,4QHC,4X6T,5NJ2,5OYO,6B5X,6B5Y,6B68,6B69,6B6A,6B6B,6B6C,6B6D,6B6E,6B6F,6H2C,6H2G,6H2H,6H2I,6H2K,7K8E,7K8F,7K8H,7K8K,7K8L,8BV4,8EBI,8EBR,8EC4,8ECF

> <UniProt (SwissProt) Recommended Name of Target Chain>
Beta-lactamase

> <UniProt (SwissProt) Entry Name of Target Chain>
BLAC_MYCTO

> <UniProt (SwissProt) Primary ID of Target Chain>
P9WKD2

> <UniProt (SwissProt) Secondary ID(s) of Target Chain>
L0T8I9 P0A5I6 P0C5C1 Q10670

> <UniProt (SwissProt) Alternative ID(s) of Target Chain>


> <UniProt (TrEMBL) Submitted Name of Target Chain>


> <UniProt (TrEMBL) Entry Name of Target Chain>


> <UniProt (TrEMBL) Primary ID of Target Chain>


> <UniProt (TrEMBL) Secondary ID(s) of Target Chain>


> <UniProt (TrEMBL) Alternative ID(s) of Target Chain>


$$$$

  Mrv0541 11221409162D          

 26 29  0  0  0  0            999 V2000
   11.5773   -3.7278    0.0000 C   0  0  0  0  0  0  0  0  0  0  0  0
   11.5761   -4.5498    0.0000 C   0  0  0  0  0  0  0  0  0  0  0  0
   12.2940   -4.9621    0.0000 C   0  0  0  0  0  0  0  0  0  0  0  0
   12.2922   -3.3156    0.0000 C   0  0  0  0  0  0  0  0  0  0  0  0
   13.0024   -3.7242    0.0000 C   0  0  0  0  0  0  0  0  0  0  0  0
   13.0027   -4.5498    0.0000 C   0  0  0  0  0  0  0  0  0  0  0  0
   13.7878   -4.8019    0.0000 S   0  0  0  0  0  0  0  0  0  0  0  0
   14.2671   -4.1429    0.0000 C   0  0  0  0  0  0  0  0  0  0  0  0
   13.7874   -3.4717    0.0000 C   0  0  0  0  0  0  0  0  0  0  0  0
   15.0909   -4.1467    0.0000 B   0  0  0  0  0  0  0  0  0  0  0  0
   15.5030   -4.8558    0.0000 O   0  0  0  0  0  0  0  0  0  0  0  0
   15.5025   -3.4290    0.0000 O   0  0  0  0  0  0  0  0  0  0  0  0
   10.8555   -3.3119    0.0000 C   0  0  0  0  0  0  0  0  0  0  0  0
   10.1438   -3.7280    0.0000 N   0  0  0  0  0  0  0  0  0  0  0  0
    9.4262   -3.3204    0.0000 C   0  0  0  0  0  0  0  0  0  0  0  0
    9.4230   -2.4968    0.0000 C   0  0  0  0  0  0  0  0  0  0  0  0
    8.7103   -2.0846    0.0000 C   0  0  0  0  0  0  0  0  0  0  0  0
    7.9835   -2.5088    0.0000 C   0  0  0  0  0  0  0  0  0  0  0  0
    7.9905   -3.3327    0.0000 C   0  0  0  0  0  0  0  0  0  0  0  0
    8.7121   -3.7406    0.0000 C   0  0  0  0  0  0  0  0  0  0  0  0
    7.2716   -2.0933    0.0000 N   0  0  0  0  0  0  0  0  0  0  0  0
    7.2715   -1.2649    0.0000 C   0  0  0  0  0  0  0  0  0  0  0  0
    6.5595   -0.8536    0.0000 C   0  0  0  0  0  0  0  0  0  0  0  0
    5.8381   -1.2667    0.0000 O   0  0  0  0  0  0  0  0  0  0  0  0
    5.8373   -2.0957    0.0000 C   0  0  0  0  0  0  0  0  0  0  0  0
    6.5539   -2.5073    0.0000 C   0  0  0  0  0  0  0  0  0  0  0  0
  2  3  1  0  0  0  0
  1 13  1  0  0  0  0
  3  6  2  0  0  0  0
 13 14  1  0  0  0  0
  1  2  2  0  0  0  0
 14 15  1  0  0  0  0
  5  4  2  0  0  0  0
 15 16  2  0  0  0  0
  6  7  1  0  0  0  0
 16 17  1  0  0  0  0
  7  8  1  0  0  0  0
 17 18  2  0  0  0  0
  8  9  2  0  0  0  0
 18 19  1  0  0  0  0
  9  5  1  0  0  0  0
 19 20  2  0  0  0  0
 20 15  1  0  0  0  0
  4  1  1  0  0  0  0
 18 21  1  0  0  0  0
 21 22  1  0  0  0  0
  8 10  1  0  0  0  0
  5  6  1  0  0  0  0
 10 11  1  0  0  0  0
 10 12  1  0  0  0  0
 21 26  1  0  0  0  0
 22 23  1  0  0  0  0
 23 24  1  0  0  0  0
 24 25  1  0  0  0  0
 25 26  1  0  0  0  0
M  END
> <From>
www.bindingDB.org

> <BindingDB Reactant_set_id>
50404435

> <Ligand InChI>
InChI=1S/C19H21BN2O3S/c23-20(24)19-12-15-11-14(1-6-18(15)26-19)13-21-16-2-4-17(5-3-16)22-7-9-25-10-8-22/h1-6,11-12,21,23-24H,7-10,13H2

> <Ligand InChI Key>
XERIMYALBKZDJZ-UHFFFAOYSA-N

> <BindingDB MonomerID>
50225385

> <BindingDB Ligand Name>
CHEMBL391537::pinacol 5-[(4-morpholin-4-yl-phenylamino)methyl]benzo[b]-thiophen-2-ylboronate

> <Target Name>
Beta-lactamase TEM

> <Target Source Organism According to Curator or DataSource>


> <Ki (nM)>
 800

> <IC50 (nM)>


> <Kd (nM)>


> <EC50 (nM)>


> <kon (M-1-s-1)>


> <koff (s-1)>


> <pH>


> <Temp C>


> <Curation/DataSource>
ChEMBL

> <Article DOI>
10.1021/jm070643q

> <BindingDB Entry DOI>
10.7270/Q21N80W5

> <PMID>
17956081

> <PubChem AID>


> <Patent Number>


> <Authors>
Venturelli, A; Tondi, D; Cancian, L; Morandi, F; Cannazza, G; Segatore, B; Prati, F; Amicosante, G; Shoichet, BK; Costi, MP

> <Institution>
Universit&#224; degli Studi di Modena e Reggio Emilia

> <Link to Ligand in BindingDB>
http://www.bindingdb.org/bind/chemsearch/marvin/MolStructure.jsp?monomerid=50225385

> <Link to Ligand-Target Pair in BindingDB>
http://www.bindingdb.org/jsp/dbsearch/PrimarySearch_ki.jsp?energyterm=kJ/mole&tag=pol&polymerid=7704&target=Beta-lactamase+TEM&column=ki&startPg=0&Increment=50&submit=Search

> <Link to Ligand-Target Pair in BindingDB>
http://www.bindingdb.org/jsp/dbsearch/PrimarySearch_ki.jsp?energyterm=kJ/mole&tag=r21&monomerid=50225385&enzyme=Beta-lactamase+TEM&column=ki&startPg=0&Increment=50&submit=Search

> <Ligand HET ID in PDB>


> <PDB ID(s) for Ligand-Target Complex>


> <PubChem CID of Ligand>
23655688

> <PubChem SID of Ligand>
104096691

> <ChEBI ID of Ligand>


> <ChEMBL ID of Ligand>
CHEMBL391537

> <DrugBank ID of Ligand>


> <IUPHAR_GRAC ID of Ligand>


> <KEGG ID of Ligand>


> <ZINC ID of Ligand>


> <Number of Protein Chains in Target (bigger than 1 implies a multichain complex)>
1

> <BindingDB Target Chain Sequence>
MSIQHFRVALIPFFAAFCLPVFAHPETLVKVKDAEDQLGARVGYIELDLNSGKILESFRPEERFPMMSTFKVLLCGAVLSRVDAGQEQLGRRIHYSQNDLVEYSPVTEKHLTDGMTVRELCSAAITMSDNTAANLLLTTIGGPKELTAFLHNMGDHVTRLDRWEPELNEAIPNDERDTTMPAAMATTLRKLLTGELLTLASRQQLIDWMEADKVAGPLLRSALPAGWFIADKSGAGERGSRGIIAALGPDGKPSRIVVIYTTGSQATMDERNRQIAEIGASLIKHW

> <PDB ID(s) of Target Chain>
1ERM,1ERO,1ERQ,1ESU,1FQG,1JTD,1JVJ,1JWP,1JWV,1LHY,1LI9,1M40,1NXY,1NY0,1NYM,1NYY,1PZO,1PZP,1S0W,1XPB,1YT4,2V1Z,2V20,3CMZ,3DTM,3JYI,3P98,4DXB,4DXC,4GKU,4ZJ2,5AQ8,5HVI,5HW1,5HW5,5NPO,6B2N,7QLP,7QNK,7U6Q,8DE0

> <UniProt (SwissProt) Recommended Name of Target Chain>
Beta-lactamase TEM

> <UniProt (SwissProt) Entry Name of Target Chain>
BLAT_ECOLX

> <UniProt (SwissProt) Primary ID of Target Chain>
P62593

> <UniProt (SwissProt) Secondary ID(s) of Target Chain>
P00810 Q47313

> <UniProt (SwissProt) Alternative ID(s) of Target Chain>


> <UniProt (TrEMBL) Submitted Name of Target Chain>


> <UniProt (TrEMBL) Entry Name of Target Chain>


> <UniProt (TrEMBL) Primary ID of Target Chain>


> <UniProt (TrEMBL) Secondary ID(s) of Target Chain>


> <UniProt (TrEMBL) Alternative ID(s) of Target Chain>


$$$$
 
  Mrv0541 11221422532D          

 14 15  0  0  0  0            999 V2000
    8.4706   -2.8163    0.0000 C   0  0  1  0  0  0  0  0  0  0  0  0
    8.9602   -2.1521    0.0000 C   0  0  0  0  0  0  0  0  0  0  0  0
    8.4799   -1.4815    0.0000 O   0  0  0  0  0  0  0  0  0  0  0  0
    7.6878   -2.5558    0.0000 N   0  0  0  0  0  0  0  0  0  0  0  0
    7.6935   -1.7309    0.0000 C   0  0  1  0  0  0  0  0  0  0  0  0
    6.8686   -1.7252    0.0000 C   0  0  0  0  0  0  0  0  0  0  0  0
    6.8629   -2.5502    0.0000 C   0  0  0  0  0  0  0  0  0  0  0  0
    8.7201   -3.6027    0.0000 C   0  0  0  0  0  0  0  0  0  0  0  0
    8.1638   -4.2118    0.0000 O   0  0  0  0  0  0  0  0  0  0  0  0
    9.5258   -3.7798    0.0000 O   0  0  0  0  0  0  0  0  0  0  0  0
    9.7852   -2.1578    0.0000 C   0  0  0  0  0  0  0  0  0  0  0  0
    6.2755   -3.1294    0.0000 O   0  0  0  0  0  0  0  0  0  0  0  0
   10.2026   -1.4463    0.0000 C   0  0  0  0  0  0  0  0  0  0  0  0
   11.0275   -1.4519    0.0000 O   0  0  0  0  0  0  0  0  0  0  0  0
  7  4  1  0  0  0  0
  5  3  1  0  0  0  0
  1  8  1  6  0  0  0
  5  4  1  1  0  0  0
  8  9  2  0  0  0  0
  8 10  1  0  0  0  0
  1  4  1  0  0  0  0
  2 11  2  0  0  0  0
  1  2  1  0  0  0  0
  7 12  2  0  0  0  0
  2  3  1  0  0  0  0
  5  6  1  0  0  0  0
 11 13  1  0  0  0  0
  6  7  1  0  0  0  0
 13 14  1  0  0  0  0
M  END
> <From>
www.bindingDB.org

> <BindingDB Reactant_set_id>
50034434

> <Ligand InChI>
InChI=1S/C8H9NO5/c10-2-1-4-7(8(12)13)9-5(11)3-6(9)14-4/h1,6-7,10H,2-3H2,(H,12,13)/b4-1-/t6-,7-/m1/s1

> <Ligand InChI Key>
HZZVJAQRINQKSD-PBFISZAISA-N

> <BindingDB MonomerID>
50021959

> <BindingDB Ligand Name>
CHEMBL777::MM 14151::US9120808, Clavulanic acid potassium salt::antibiotic MM 14151::clavulanic acid

> <Target Name>
Beta-lactamase TEM

> <Target Source Organism According to Curator or DataSource>


> <Ki (nM)>
 800

> <IC50 (nM)>


> <Kd (nM)>


> <EC50 (nM)>


> <kon (M-1-s-1)>


> <koff (s-1)>


> <pH>


> <Temp C>


> <Curation/DataSource>
ChEMBL

> <Article DOI>
10.1021/jm00397a018

> <BindingDB Entry DOI>
10.7270/Q21R6PHS

> <PMID>
3257523

> <PubChem AID>


> <Patent Number>


> <Authors>
Joyeau, R; Molines, H; Labia, R; Wakselman, M

> <Institution>
CNRS-CERCOA

> <Link to Ligand in BindingDB>
http://www.bindingdb.org/bind/chemsearch/marvin/MolStructure.jsp?monomerid=50021959

> <Link to Ligand-Target Pair in BindingDB>
http://www.bindingdb.org/jsp/dbsearch/PrimarySearch_ki.jsp?energyterm=kJ/mole&tag=pol&polymerid=7704&target=Beta-lactamase+TEM&column=ki&startPg=0&Increment=50&submit=Search

> <Link to Ligand-Target Pair in BindingDB>
http://www.bindingdb.org/jsp/dbsearch/PrimarySearch_ki.jsp?energyterm=kJ/mole&tag=r21&monomerid=50021959&enzyme=Beta-lactamase+TEM&column=ki&startPg=0&Increment=50&submit=Search

> <Ligand HET ID in PDB>
J01

> <PDB ID(s) for Ligand-Target Complex>
6NVU,2XH9,2XF3,2XFS,6PQ8,2JAP

> <PubChem CID of Ligand>
5280980

> <PubChem SID of Ligand>
103932648

> <ChEBI ID of Ligand>
48947

> <ChEMBL ID of Ligand>
CHEMBL777

> <DrugBank ID of Ligand>
DB00766

> <IUPHAR_GRAC ID of Ligand>


> <KEGG ID of Ligand>
C06662

> <ZINC ID of Ligand>
ZINC03830569

> <Number of Protein Chains in Target (bigger than 1 implies a multichain complex)>
1

> <BindingDB Target Chain Sequence>
MSIQHFRVALIPFFAAFCLPVFAHPETLVKVKDAEDQLGARVGYIELDLNSGKILESFRPEERFPMMSTFKVLLCGAVLSRVDAGQEQLGRRIHYSQNDLVEYSPVTEKHLTDGMTVRELCSAAITMSDNTAANLLLTTIGGPKELTAFLHNMGDHVTRLDRWEPELNEAIPNDERDTTMPAAMATTLRKLLTGELLTLASRQQLIDWMEADKVAGPLLRSALPAGWFIADKSGAGERGSRGIIAALGPDGKPSRIVVIYTTGSQATMDERNRQIAEIGASLIKHW

> <PDB ID(s) of Target Chain>
1ERM,1ERO,1ERQ,1ESU,1FQG,1JTD,1JVJ,1JWP,1JWV,1LHY,1LI9,1M40,1NXY,1NY0,1NYM,1NYY,1PZO,1PZP,1S0W,1XPB,1YT4,2V1Z,2V20,3CMZ,3DTM,3JYI,3P98,4DXB,4DXC,4GKU,4ZJ2,5AQ8,5HVI,5HW1,5HW5,5NPO,6B2N,7QLP,7QNK,7U6Q,8DE0

> <UniProt (SwissProt) Recommended Name of Target Chain>
Beta-lactamase TEM

> <UniProt (SwissProt) Entry Name of Target Chain>
BLAT_ECOLX

> <UniProt (SwissProt) Primary ID of Target Chain>
P62593

> <UniProt (SwissProt) Secondary ID(s) of Target Chain>
P00810 Q47313

> <UniProt (SwissProt) Alternative ID(s) of Target Chain>


> <UniProt (TrEMBL) Submitted Name of Target Chain>


> <UniProt (TrEMBL) Entry Name of Target Chain>


> <UniProt (TrEMBL) Primary ID of Target Chain>


> <UniProt (TrEMBL) Secondary ID(s) of Target Chain>


> <UniProt (TrEMBL) Alternative ID(s) of Target Chain>


$$$$
 
  Mrv0541 11221422532D          

 15 16  0  0  0  0            999 V2000
   -0.9000   -2.9333    0.0000 N   0  0  0  0  0  0  0  0  0  0  0  0
   -1.7250   -2.9333    0.0000 C   0  0  0  0  0  0  0  0  0  0  0  0
   -0.8917   -2.1083    0.0000 C   0  0  2  0  0  0  0  0  0  0  0  0
   -0.1167   -3.1958    0.0000 C   0  0  2  0  0  0  0  0  0  0  0  0
    0.3750   -2.5333    0.0000 C   0  0  0  0  0  0  0  0  0  0  0  0
   -0.1125   -1.8667    0.0000 S   0  0  0  0  0  0  0  0  0  0  0  0
   -1.7167   -2.1083    0.0000 C   0  0  0  0  0  0  0  0  0  0  0  0
    0.1333   -3.9833    0.0000 C   0  0  0  0  0  0  0  0  0  0  0  0
   -2.3125   -3.5083    0.0000 O   0  0  0  0  0  0  0  0  0  0  0  0
    0.9375   -4.1583    0.0000 O   0  0  0  0  0  0  0  0  0  0  0  0
   -0.3292   -1.0667    0.0000 O   0  0  0  0  0  0  0  0  0  0  0  0
    0.6833   -1.6500    0.0000 O   0  0  0  0  0  0  0  0  0  0  0  0
    1.0875   -2.1167    0.0000 C   0  0  0  0  0  0  0  0  0  0  0  0
    1.0875   -2.9458    0.0000 C   0  0  0  0  0  0  0  0  0  0  0  0
   -0.4222   -4.5932    0.0000 O   0  0  0  0  0  0  0  0  0  0  0  0
  3  6  1  0  0  0  0
  3  7  1  0  0  0  0
  4  8  1  6  0  0  0
  9  2  2  0  0  0  0
 10  8  2  0  0  0  0
  7  2  1  0  0  0  0
  5  6  1  0  0  0  0
  6 11  2  0  0  0  0
  2  1  1  0  0  0  0
  6 12  2  0  0  0  0
  3  1  1  1  0  0  0
  5 13  1  0  0  0  0
  4  1  1  0  0  0  0
  5 14  1  0  0  0  0
  4  5  1  0  0  0  0
  8 15  1  0  0  0  0
M  END
> <From>
www.bindingDB.org

> <BindingDB Reactant_set_id>
50034424

> <Ligand InChI>
InChI=1S/C8H11NO5S/c1-8(2)6(7(11)12)9-4(10)3-5(9)15(8,13)14/h5-6H,3H2,1-2H3,(H,11,12)/t5-,6+/m1/s1

> <Ligand InChI Key>
FKENQMMABCRJMK-RITPCOANSA-N

> <BindingDB MonomerID>
50021954

> <BindingDB Ligand Name>
(2S,5R)-3,3-Dimethyl-4,4,7-trioxo-4lambda*6*-thia-1-aza-bicyclo[3.2.0]heptane-2-carboxylic acid::(S)-3,3-Dimethyl-7-(R)-oxo-4,4-dioxo-4lambda*6*-thia-1-aza-bicyclo[3.2.0]heptane-2-carboxylic acid::3,3-Dimethyl-4,4,7-trioxo-4lambda*6*-thia-1-aza-bicyclo[3.2.0]heptane-2-carboxylic acid::3,3-Dimethyl-4,4,7-trioxo-4lambda*6*-thia-1-aza-bicyclo[3.2.0]heptane-2-carboxylic acid (Sulbactam)::CHEMBL403::CP-45,899::SULBACTAM::UNASYN::US9120808, Sulbactam sodium salt

> <Target Name>
Beta-lactamase TEM

> <Target Source Organism According to Curator or DataSource>


> <Ki (nM)>
 800

> <IC50 (nM)>


> <Kd (nM)>


> <EC50 (nM)>


> <kon (M-1-s-1)>


> <koff (s-1)>


> <pH>


> <Temp C>


> <Curation/DataSource>
ChEMBL

> <Article DOI>
10.1021/jm00397a018

> <BindingDB Entry DOI>
10.7270/Q21R6PHS

> <PMID>
3257523

> <PubChem AID>


> <Patent Number>


> <Authors>
Joyeau, R; Molines, H; Labia, R; Wakselman, M

> <Institution>
CNRS-CERCOA

> <Link to Ligand in BindingDB>
http://www.bindingdb.org/bind/chemsearch/marvin/MolStructure.jsp?monomerid=50021954

> <Link to Ligand-Target Pair in BindingDB>
http://www.bindingdb.org/jsp/dbsearch/PrimarySearch_ki.jsp?energyterm=kJ/mole&tag=pol&polymerid=7704&target=Beta-lactamase+TEM&column=ki&startPg=0&Increment=50&submit=Search

> <Link to Ligand-Target Pair in BindingDB>
http://www.bindingdb.org/jsp/dbsearch/PrimarySearch_ki.jsp?energyterm=kJ/mole&tag=r21&monomerid=50021954&enzyme=Beta-lactamase+TEM&column=ki&startPg=0&Increment=50&submit=Search

> <Ligand HET ID in PDB>
0RN

> <PDB ID(s) for Ligand-Target Complex>
7K8K,4FH2,8EBR

> <PubChem CID of Ligand>
130313

> <PubChem SID of Ligand>
103932643

> <ChEBI ID of Ligand>
9321

> <ChEMBL ID of Ligand>
CHEMBL403

> <DrugBank ID of Ligand>
DB09324

> <IUPHAR_GRAC ID of Ligand>


> <KEGG ID of Ligand>
C07770

> <ZINC ID of Ligand>
ZINC00897244

> <Number of Protein Chains in Target (bigger than 1 implies a multichain complex)>
1

> <BindingDB Target Chain Sequence>
MSIQHFRVALIPFFAAFCLPVFAHPETLVKVKDAEDQLGARVGYIELDLNSGKILESFRPEERFPMMSTFKVLLCGAVLSRVDAGQEQLGRRIHYSQNDLVEYSPVTEKHLTDGMTVRELCSAAITMSDNTAANLLLTTIGGPKELTAFLHNMGDHVTRLDRWEPELNEAIPNDERDTTMPAAMATTLRKLLTGELLTLASRQQLIDWMEADKVAGPLLRSALPAGWFIADKSGAGERGSRGIIAALGPDGKPSRIVVIYTTGSQATMDERNRQIAEIGASLIKHW

> <PDB ID(s) of Target Chain>
1ERM,1ERO,1ERQ,1ESU,1FQG,1JTD,1JVJ,1JWP,1JWV,1LHY,1LI9,1M40,1NXY,1NY0,1NYM,1NYY,1PZO,1PZP,1S0W,1XPB,1YT4,2V1Z,2V20,3CMZ,3DTM,3JYI,3P98,4DXB,4DXC,4GKU,4ZJ2,5AQ8,5HVI,5HW1,5HW5,5NPO,6B2N,7QLP,7QNK,7U6Q,8DE0

> <UniProt (SwissProt) Recommended Name of Target Chain>
Beta-lactamase TEM

> <UniProt (SwissProt) Entry Name of Target Chain>
BLAT_ECOLX

> <UniProt (SwissProt) Primary ID of Target Chain>
P62593

> <UniProt (SwissProt) Secondary ID(s) of Target Chain>
P00810 Q47313

> <UniProt (SwissProt) Alternative ID(s) of Target Chain>


> <UniProt (TrEMBL) Submitted Name of Target Chain>


> <UniProt (TrEMBL) Entry Name of Target Chain>


> <UniProt (TrEMBL) Primary ID of Target Chain>


> <UniProt (TrEMBL) Secondary ID(s) of Target Chain>


> <UniProt (TrEMBL) Alternative ID(s) of Target Chain>


$$$$

  Mrv0541 11191401012D          

 27 28  0  0  0  0            999 V2000
    0.9290   -0.3905    0.0000 C   0  0  0  0  0  0  0  0  0  0  0  0
    0.2146   -0.8030    0.0000 C   0  0  0  0  0  0  0  0  0  0  0  0
   -0.4999   -0.3905    0.0000 C   0  0  0  0  0  0  0  0  0  0  0  0
   -0.4999    0.4345    0.0000 C   0  0  0  0  0  0  0  0  0  0  0  0
    0.2146    0.8470    0.0000 C   0  0  0  0  0  0  0  0  0  0  0  0
    0.9290    0.4345    0.0000 C   0  0  0  0  0  0  0  0  0  0  0  0
   -1.2144    0.8470    0.0000 B   0  0  0  0  0  0  0  0  0  0  0  0
   -1.9288    0.4345    0.0000 O   0  0  0  0  0  0  0  0  0  0  0  0
   -1.2144    1.6720    0.0000 O   0  0  0  0  0  0  0  0  0  0  0  0
    1.6435    0.8470    0.0000 N   0  0  0  0  0  0  0  0  0  0  0  0
    1.6435    1.6720    0.0000 S   0  0  0  0  0  0  0  0  0  0  0  0
    1.6435    2.4970    0.0000 C   0  0  0  0  0  0  0  0  0  0  0  0
    0.8185    1.6720    0.0000 O   0  0  0  0  0  0  0  0  0  0  0  0
    2.4685    1.6720    0.0000 O   0  0  0  0  0  0  0  0  0  0  0  0
    1.6435    4.1471    0.0000 C   0  0  0  0  0  0  0  0  0  0  0  0
    0.9290    3.7346    0.0000 C   0  0  0  0  0  0  0  0  0  0  0  0
    0.9290    2.9095    0.0000 C   0  0  0  0  0  0  0  0  0  0  0  0
    2.3580    2.9095    0.0000 C   0  0  0  0  0  0  0  0  0  0  0  0
    2.3580    3.7346    0.0000 C   0  0  0  0  0  0  0  0  0  0  0  0
    1.6435    4.9721    0.0000 O   0  0  0  0  0  0  0  0  0  0  0  0
    2.3580    5.3846    0.0000 C   0  0  0  0  0  0  0  0  0  0  0  0
    2.3580    6.2096    0.0000 F   0  0  0  0  0  0  0  0  0  0  0  0
    3.1549    5.1710    0.0000 F   0  0  0  0  0  0  0  0  0  0  0  0
    2.4657    4.5666    0.0000 F   0  0  0  0  0  0  0  0  0  0  0  0
    0.2146    2.4970    0.0000 N   0  0  0  0  0  0  0  0  0  0  0  0
    0.2146    1.6720    0.0000 O   0  0  0  0  0  0  0  0  0  0  0  0
   -0.4999    2.9095    0.0000 O   0  0  0  0  0  0  0  0  0  0  0  0
  1  2  2  0  0  0  0
  2  3  1  0  0  0  0
  3  4  2  0  0  0  0
  4  5  1  0  0  0  0
  5  6  2  0  0  0  0
  1  6  1  0  0  0  0
  4  7  1  0  0  0  0
  7  8  1  0  0  0  0
  7  9  1  0  0  0  0
  6 10  1  0  0  0  0
 10 11  1  0  0  0  0
 11 12  1  0  0  0  0
 11 13  2  0  0  0  0
 11 14  2  0  0  0  0
 17 12  2  0  0  0  0
 12 18  1  0  0  0  0
 15 16  2  0  0  0  0
 16 17  1  0  0  0  0
 18 19  2  0  0  0  0
 15 19  1  0  0  0  0
 15 20  1  0  0  0  0
 20 21  1  0  0  0  0
 21 22  1  0  0  0  0
 21 23  1  0  0  0  0
 21 24  1  0  0  0  0
 17 25  1  0  0  0  0
 25 26  2  0  0  0  0
 25 27  2  0  0  0  0
M  END
> <From>
www.bindingDB.org

> <BindingDB Reactant_set_id>
74810

> <Ligand InChI>
InChI=1S/C13H10BF3N2O7S/c15-13(16,17)26-10-4-5-12(11(7-10)19(22)23)27(24,25)18-9-3-1-2-8(6-9)14(20)21/h1-7,18,20-21H

> <Ligand InChI Key>
RWUAKQIWWBISKJ-UHFFFAOYSA-N

> <BindingDB MonomerID>
39824

> <BindingDB Ligand Name>
Amide and sulfonamide derivatives, 8

> <Target Name>
Beta-lactamase

> <Target Source Organism According to Curator or DataSource>
Escherichia coli

> <Ki (nM)>
 8.2e+2

> <IC50 (nM)>


> <Kd (nM)>


> <EC50 (nM)>


> <kon (M-1-s-1)>


> <koff (s-1)>


> <pH>
7

> <Temp C>


> <Curation/DataSource>
Curated from the literature by BindingDB

> <Article DOI>
10.1016/S1074-5521(01)00034-5

> <BindingDB Entry DOI>
10.7270/Q27M06BZ

> <PMID>
11410378

> <PubChem AID>
aid1799472

> <Patent Number>


> <Authors>
Tondi, D; Powers, RA; Caselli, E; Negri, MC; Bl&aacute;zquez, J; Costi, MP; Shoichet, BK

> <Institution>
Northwestern University

> <Link to Ligand in BindingDB>
http://www.bindingdb.org/bind/chemsearch/marvin/MolStructure.jsp?monomerid=39824

> <Link to Ligand-Target Pair in BindingDB>
http://www.bindingdb.org/jsp/dbsearch/PrimarySearch_ki.jsp?energyterm=kJ/mole&tag=pol&polymerid=4401&target=Beta-lactamase&column=ki&startPg=0&Increment=50&submit=Search

> <Link to Ligand-Target Pair in BindingDB>
http://www.bindingdb.org/jsp/dbsearch/PrimarySearch_ki.jsp?energyterm=kJ/mole&tag=r21&monomerid=39824&enzyme=Beta-lactamase&column=ki&startPg=0&Increment=50&submit=Search

> <Ligand HET ID in PDB>


> <PDB ID(s) for Ligand-Target Complex>


> <PubChem CID of Ligand>
52939995

> <PubChem SID of Ligand>
123080132

> <ChEBI ID of Ligand>


> <ChEMBL ID of Ligand>


> <DrugBank ID of Ligand>


> <IUPHAR_GRAC ID of Ligand>


> <KEGG ID of Ligand>
C06058

> <ZINC ID of Ligand>


> <Number of Protein Chains in Target (bigger than 1 implies a multichain complex)>
1

> <BindingDB Target Chain Sequence>
MFKTTLCALLITASCSTFAAPQQINDIVHRTITPLIEQQKIPGMAVAVIYQGKPYYFTWGYADIAKKQPVTQQTLFELGSVSKTFTGVLGGDAIARGEIKLSDPTTKYWPELTAKQWNGITLLHLATYTAGGLPLQVPDEVKSSSDLLRFYQNWQPAWAPGTQRLYANSSIGLFGALAVKPSGLSFEQAMQTRVFQPLKLNHTWINVPPAEEKNYAWGYREGKAVHVSPGALDAEAYGVKSTIEDMARWVQSNLKPLDINEKTLQQGIQLAQSRYWQTGDMYQGLGWEMLDWPVNPDSIINGSDNKIALAARPVKAITPPTPAVRASWVHKTGATGGFGSYVAFIPEKELGIVMLANKNYPNPARVDAAWQILNALQ

> <PDB ID(s) of Target Chain>
1C3B,1FCO,1FSW,1FSY,1GA9,1IEL,1IEM,1KDS,1KDW,1KE0,1KE3,1KE4,1KVM,1L2S,1LL5,1LL9,1LLB,1MXO,1MY8,1XGI,1XGJ,2BLS,2HDQ,2HDR,2HDS,2HDU,2I72,2P9V,2PU2,2PU4,2R9W,2R9X,2RCX,3BLS,3BM6,3GQZ,3GR2,3GRJ,3GSG,3GTC,3GV9,3GVB,3O86,3O87,3O88,4E3I,4E3J,4E3K,4E3L,4E3M,4E3N,4E3O,4JXG,4JXS,4JXV,4JXW,4KG2,4KZ3,4KZ4,4KZ5,4KZ6,4KZ7,4KZ8,4KZ9,4KZA,4KZB,4LV0,4LV1,4LV2,4LV3,4OKP,4OLD,4OLG,6DPT,6DPX,6DPY,6DPZ,6T35,6T3D,6T5Y,6T7L,6TBW,6TPM,6WGQ,6YEN,6YEO,6YPD

> <UniProt (SwissProt) Recommended Name of Target Chain>
Beta-lactamase

> <UniProt (SwissProt) Entry Name of Target Chain>
AMPC_ECOLI

> <UniProt (SwissProt) Primary ID of Target Chain>
P00811

> <UniProt (SwissProt) Secondary ID(s) of Target Chain>
Q2M6F2

> <UniProt (SwissProt) Alternative ID(s) of Target Chain>


> <UniProt (TrEMBL) Submitted Name of Target Chain>


> <UniProt (TrEMBL) Entry Name of Target Chain>


> <UniProt (TrEMBL) Primary ID of Target Chain>


> <UniProt (TrEMBL) Secondary ID(s) of Target Chain>


> <UniProt (TrEMBL) Alternative ID(s) of Target Chain>


$$$$

  Mrv0541 11191401012D          

 29 31  0  0  0  0            999 V2000
   -0.7396    1.4778    0.0000 C   0  0  0  0  0  0  0  0  0  0  0  0
   -1.5646    1.4778    0.0000 C   0  0  0  0  0  0  0  0  0  0  0  0
   -1.9771    2.1922    0.0000 C   0  0  0  0  0  0  0  0  0  0  0  0
   -1.5646    2.9067    0.0000 C   0  0  0  0  0  0  0  0  0  0  0  0
   -0.7396    2.9067    0.0000 C   0  0  0  0  0  0  0  0  0  0  0  0
   -0.3271    2.1922    0.0000 C   0  0  0  0  0  0  0  0  0  0  0  0
   -1.9771    3.6212    0.0000 B   0  0  0  0  0  0  0  0  0  0  0  0
   -2.8021    3.6212    0.0000 O   0  0  0  0  0  0  0  0  0  0  0  0
   -1.5646    4.3356    0.0000 O   0  0  0  0  0  0  0  0  0  0  0  0
    0.4979    2.1922    0.0000 N   0  0  0  0  0  0  0  0  0  0  0  0
    0.9104    1.4778    0.0000 S   0  0  0  0  0  0  0  0  0  0  0  0
    0.4979    0.7633    0.0000 O   0  0  0  0  0  0  0  0  0  0  0  0
    1.7354    1.4778    0.0000 C   0  0  0  0  0  0  0  0  0  0  0  0
    1.3229    2.1923    0.0000 O   0  0  0  0  0  0  0  0  0  0  0  0
    2.0709    2.2315    0.0000 C   0  0  0  0  0  0  0  0  0  0  0  0
    2.3485    0.9258    0.0000 S   0  0  0  0  0  0  0  0  0  0  0  0
    3.0629    1.3383    0.0000 C   0  0  0  0  0  0  0  0  0  0  0  0
    2.8914    2.1453    0.0000 C   0  0  0  0  0  0  0  0  0  0  0  0
    3.8166    1.0028    0.0000 C   0  0  0  0  0  0  0  0  0  0  0  0
    4.5311    1.4153    0.0000 N   0  0  0  0  0  0  0  0  0  0  0  0
    5.2456    1.0028    0.0000 C   0  0  0  0  0  0  0  0  0  0  0  0
    5.9600    1.4153    0.0000 C   0  0  0  0  0  0  0  0  0  0  0  0
    5.2456    0.1778    0.0000 O   0  0  0  0  0  0  0  0  0  0  0  0
    6.6745    2.6528    0.0000 C   0  0  0  0  0  0  0  0  0  0  0  0
    5.9600    2.2403    0.0000 C   0  0  0  0  0  0  0  0  0  0  0  0
    6.6745    1.0028    0.0000 C   0  0  0  0  0  0  0  0  0  0  0  0
    7.3890    1.4153    0.0000 C   0  0  0  0  0  0  0  0  0  0  0  0
    7.3890    2.2403    0.0000 C   0  0  0  0  0  0  0  0  0  0  0  0
    8.1034    2.6528    0.0000 Cl  0  0  0  0  0  0  0  0  0  0  0  0
  1  2  2  0  0  0  0
  2  3  1  0  0  0  0
  3  4  2  0  0  0  0
  4  5  1  0  0  0  0
  5  6  2  0  0  0  0
  1  6  1  0  0  0  0
  4  7  1  0  0  0  0
  7  8  1  0  0  0  0
  7  9  1  0  0  0  0
  6 10  1  0  0  0  0
 10 11  1  0  0  0  0
 11 12  2  0  0  0  0
 11 13  1  0  0  0  0
 11 14  2  0  0  0  0
 15 13  2  0  0  0  0
 13 16  1  0  0  0  0
 16 17  1  0  0  0  0
 17 18  2  0  0  0  0
 15 18  1  0  0  0  0
 17 19  1  0  0  0  0
 19 20  1  0  0  0  0
 20 21  1  0  0  0  0
 21 22  1  0  0  0  0
 21 23  2  0  0  0  0
 25 22  2  0  0  0  0
 22 26  1  0  0  0  0
 24 25  1  0  0  0  0
 26 27  2  0  0  0  0
 27 28  1  0  0  0  0
 24 28  2  0  0  0  0
 28 29  1  0  0  0  0
M  END
> <From>
www.bindingDB.org

> <BindingDB Reactant_set_id>
74833

> <Ligand InChI>
InChI=1S/C18H16BClN2O5S2/c20-14-6-4-12(5-7-14)18(23)21-11-16-8-9-17(28-16)29(26,27)22-15-3-1-2-13(10-15)19(24)25/h1-10,22,24-25H,11H2,(H,21,23)

> <Ligand InChI Key>
VZCYKNKTQUEGTL-UHFFFAOYSA-N

> <BindingDB MonomerID>
39847

> <BindingDB Ligand Name>
Amide and sulfonamide derivatives, 31

> <Target Name>
Beta-lactamase

> <Target Source Organism According to Curator or DataSource>
Escherichia coli

> <Ki (nM)>
 8.6e+2

> <IC50 (nM)>


> <Kd (nM)>


> <EC50 (nM)>


> <kon (M-1-s-1)>


> <koff (s-1)>


> <pH>
7

> <Temp C>


> <Curation/DataSource>
Curated from the literature by BindingDB

> <Article DOI>
10.1016/S1074-5521(01)00034-5

> <BindingDB Entry DOI>
10.7270/Q27M06BZ

> <PMID>
11410378

> <PubChem AID>
aid1799472

> <Patent Number>


> <Authors>
Tondi, D; Powers, RA; Caselli, E; Negri, MC; Bl&aacute;zquez, J; Costi, MP; Shoichet, BK

> <Institution>
Northwestern University

> <Link to Ligand in BindingDB>
http://www.bindingdb.org/bind/chemsearch/marvin/MolStructure.jsp?monomerid=39847

> <Link to Ligand-Target Pair in BindingDB>
http://www.bindingdb.org/jsp/dbsearch/PrimarySearch_ki.jsp?energyterm=kJ/mole&tag=pol&polymerid=4401&target=Beta-lactamase&column=ki&startPg=0&Increment=50&submit=Search

> <Link to Ligand-Target Pair in BindingDB>
http://www.bindingdb.org/jsp/dbsearch/PrimarySearch_ki.jsp?energyterm=kJ/mole&tag=r21&monomerid=39847&enzyme=Beta-lactamase&column=ki&startPg=0&Increment=50&submit=Search

> <Ligand HET ID in PDB>


> <PDB ID(s) for Ligand-Target Complex>


> <PubChem CID of Ligand>
52940004

> <PubChem SID of Ligand>
123080155

> <ChEBI ID of Ligand>


> <ChEMBL ID of Ligand>


> <DrugBank ID of Ligand>


> <IUPHAR_GRAC ID of Ligand>


> <KEGG ID of Ligand>


> <ZINC ID of Ligand>


> <Number of Protein Chains in Target (bigger than 1 implies a multichain complex)>
1

> <BindingDB Target Chain Sequence>
MFKTTLCALLITASCSTFAAPQQINDIVHRTITPLIEQQKIPGMAVAVIYQGKPYYFTWGYADIAKKQPVTQQTLFELGSVSKTFTGVLGGDAIARGEIKLSDPTTKYWPELTAKQWNGITLLHLATYTAGGLPLQVPDEVKSSSDLLRFYQNWQPAWAPGTQRLYANSSIGLFGALAVKPSGLSFEQAMQTRVFQPLKLNHTWINVPPAEEKNYAWGYREGKAVHVSPGALDAEAYGVKSTIEDMARWVQSNLKPLDINEKTLQQGIQLAQSRYWQTGDMYQGLGWEMLDWPVNPDSIINGSDNKIALAARPVKAITPPTPAVRASWVHKTGATGGFGSYVAFIPEKELGIVMLANKNYPNPARVDAAWQILNALQ

> <PDB ID(s) of Target Chain>
1C3B,1FCO,1FSW,1FSY,1GA9,1IEL,1IEM,1KDS,1KDW,1KE0,1KE3,1KE4,1KVM,1L2S,1LL5,1LL9,1LLB,1MXO,1MY8,1XGI,1XGJ,2BLS,2HDQ,2HDR,2HDS,2HDU,2I72,2P9V,2PU2,2PU4,2R9W,2R9X,2RCX,3BLS,3BM6,3GQZ,3GR2,3GRJ,3GSG,3GTC,3GV9,3GVB,3O86,3O87,3O88,4E3I,4E3J,4E3K,4E3L,4E3M,4E3N,4E3O,4JXG,4JXS,4JXV,4JXW,4KG2,4KZ3,4KZ4,4KZ5,4KZ6,4KZ7,4KZ8,4KZ9,4KZA,4KZB,4LV0,4LV1,4LV2,4LV3,4OKP,4OLD,4OLG,6DPT,6DPX,6DPY,6DPZ,6T35,6T3D,6T5Y,6T7L,6TBW,6TPM,6WGQ,6YEN,6YEO,6YPD

> <UniProt (SwissProt) Recommended Name of Target Chain>
Beta-lactamase

> <UniProt (SwissProt) Entry Name of Target Chain>
AMPC_ECOLI

> <UniProt (SwissProt) Primary ID of Target Chain>
P00811

> <UniProt (SwissProt) Secondary ID(s) of Target Chain>
Q2M6F2

> <UniProt (SwissProt) Alternative ID(s) of Target Chain>


> <UniProt (TrEMBL) Submitted Name of Target Chain>


> <UniProt (TrEMBL) Entry Name of Target Chain>


> <UniProt (TrEMBL) Primary ID of Target Chain>


> <UniProt (TrEMBL) Secondary ID(s) of Target Chain>


> <UniProt (TrEMBL) Alternative ID(s) of Target Chain>


$$$$

  Mrv0541 11211416132D          

 22 24  0  0  0  0            999 V2000
   -0.0333    0.2458    0.0000 N   0  0  0  0  0  0  0  0  0  0  0  0
   -2.1583   -1.8292    0.0000 B   0  0  0  0  0  0  0  0  0  0  0  0
    1.3917    0.2583    0.0000 C   0  0  0  0  0  0  0  0  0  0  0  0
    2.1042    0.6708    0.0000 C   0  0  0  0  0  0  0  0  0  0  0  0
   -0.7583    0.6583    0.0000 N   0  0  0  0  0  0  0  0  0  0  0  0
   -2.1708   -1.0042    0.0000 C   0  0  0  0  0  0  0  0  0  0  0  0
    0.6792    0.6625    0.0000 C   0  0  0  0  0  0  0  0  0  0  0  0
   -1.4708   -0.5917    0.0000 C   0  0  0  0  0  0  0  0  0  0  0  0
    2.1000    1.4958    0.0000 C   0  0  0  0  0  0  0  0  0  0  0  0
   -1.4708    0.2375    0.0000 C   0  0  0  0  0  0  0  0  0  0  0  0
    0.6667    1.4833    0.0000 C   0  0  0  0  0  0  0  0  0  0  0  0
    1.3792    1.9083    0.0000 C   0  0  0  0  0  0  0  0  0  0  0  0
   -1.4333   -2.2292    0.0000 O   0  0  0  0  0  0  0  0  0  0  0  0
   -2.8583   -2.2542    0.0000 O   0  0  0  0  0  0  0  0  0  0  0  0
    2.8042    1.9208    0.0000 O   0  0  0  0  0  0  0  0  0  0  0  0
   -2.9000   -0.6000    0.0000 C   0  0  0  0  0  0  0  0  0  0  0  0
    1.4000   -0.5667    0.0000 C   0  0  0  0  0  0  0  0  0  0  0  0
    2.8167    0.2708    0.0000 C   0  0  0  0  0  0  0  0  0  0  0  0
   -2.9000    0.2208    0.0000 C   0  0  0  0  0  0  0  0  0  0  0  0
   -2.1958    0.6458    0.0000 C   0  0  0  0  0  0  0  0  0  0  0  0
    2.8167   -0.5542    0.0000 C   0  0  0  0  0  0  0  0  0  0  0  0
    2.1042   -0.9792    0.0000 C   0  0  0  0  0  0  0  0  0  0  0  0
  2  6  1  0  0  0  0
  3  7  2  0  0  0  0
  4  3  1  0  0  0  0
  5  1  2  0  0  0  0
  6  8  2  0  0  0  0
  7  1  1  0  0  0  0
  8 10  1  0  0  0  0
  9 12  1  0  0  0  0
  5 10  1  4  0  0  0
 11  7  1  0  0  0  0
 12 11  2  0  0  0  0
 13  2  1  0  0  0  0
 14  2  1  0  0  0  0
 15  9  1  0  0  0  0
 16 19  2  0  0  0  0
 17  3  1  0  0  0  0
 18  4  1  0  0  0  0
 19 20  1  0  0  0  0
 20 10  2  0  0  0  0
 21 22  1  0  0  0  0
 22 17  2  0  0  0  0
  4  9  2  0  0  0  0
 18 21  2  0  0  0  0
  6 16  1  0  0  0  0
M  END
> <From>
www.bindingDB.org

> <BindingDB Reactant_set_id>
50275068

> <Ligand InChI>
InChI=1S/C16H13BN2O3/c20-16-9-8-15(13-6-1-2-7-14(13)16)19-18-12-5-3-4-11(10-12)17(21)22/h1-10,20-22H

> <Ligand InChI Key>
GEDRDVNIRJIEFC-UHFFFAOYSA-N

> <BindingDB MonomerID>
50149785

> <BindingDB Ligand Name>
Aza-boronic acid derivative::CHEMBL184984

> <Target Name>
Beta-lactamase

> <Target Source Organism According to Curator or DataSource>
Escherichia coli

> <Ki (nM)>
 900

> <IC50 (nM)>


> <Kd (nM)>


> <EC50 (nM)>


> <kon (M-1-s-1)>


> <koff (s-1)>


> <pH>


> <Temp C>


> <Curation/DataSource>
ChEMBL

> <Article DOI>
10.1016/j.bmcl.2004.05.054

> <BindingDB Entry DOI>
10.7270/Q2XW4J8P

> <PMID>
15225711

> <PubChem AID>


> <Patent Number>


> <Authors>
Buzzoni, V; Blazquez, J; Ferrari, S; Calo, S; Venturelli, A; Costi, MP

> <Institution>
Universit&#224; degli Studi di Modena e Reggio Emilia

> <Link to Ligand in BindingDB>
http://www.bindingdb.org/bind/chemsearch/marvin/MolStructure.jsp?monomerid=50149785

> <Link to Ligand-Target Pair in BindingDB>
http://www.bindingdb.org/jsp/dbsearch/PrimarySearch_ki.jsp?energyterm=kJ/mole&tag=pol&polymerid=4401&target=Beta-lactamase&column=ki&startPg=0&Increment=50&submit=Search

> <Link to Ligand-Target Pair in BindingDB>
http://www.bindingdb.org/jsp/dbsearch/PrimarySearch_ki.jsp?energyterm=kJ/mole&tag=r21&monomerid=50149785&enzyme=Beta-lactamase&column=ki&startPg=0&Increment=50&submit=Search

> <Ligand HET ID in PDB>


> <PDB ID(s) for Ligand-Target Complex>


> <PubChem CID of Ligand>
44392774

> <PubChem SID of Ligand>
104037860

> <ChEBI ID of Ligand>


> <ChEMBL ID of Ligand>
CHEMBL184984

> <DrugBank ID of Ligand>


> <IUPHAR_GRAC ID of Ligand>


> <KEGG ID of Ligand>


> <ZINC ID of Ligand>


> <Number of Protein Chains in Target (bigger than 1 implies a multichain complex)>
1

> <BindingDB Target Chain Sequence>
MFKTTLCALLITASCSTFAAPQQINDIVHRTITPLIEQQKIPGMAVAVIYQGKPYYFTWGYADIAKKQPVTQQTLFELGSVSKTFTGVLGGDAIARGEIKLSDPTTKYWPELTAKQWNGITLLHLATYTAGGLPLQVPDEVKSSSDLLRFYQNWQPAWAPGTQRLYANSSIGLFGALAVKPSGLSFEQAMQTRVFQPLKLNHTWINVPPAEEKNYAWGYREGKAVHVSPGALDAEAYGVKSTIEDMARWVQSNLKPLDINEKTLQQGIQLAQSRYWQTGDMYQGLGWEMLDWPVNPDSIINGSDNKIALAARPVKAITPPTPAVRASWVHKTGATGGFGSYVAFIPEKELGIVMLANKNYPNPARVDAAWQILNALQ

> <PDB ID(s) of Target Chain>
1C3B,1FCO,1FSW,1FSY,1GA9,1IEL,1IEM,1KDS,1KDW,1KE0,1KE3,1KE4,1KVM,1L2S,1LL5,1LL9,1LLB,1MXO,1MY8,1XGI,1XGJ,2BLS,2HDQ,2HDR,2HDS,2HDU,2I72,2P9V,2PU2,2PU4,2R9W,2R9X,2RCX,3BLS,3BM6,3GQZ,3GR2,3GRJ,3GSG,3GTC,3GV9,3GVB,3O86,3O87,3O88,4E3I,4E3J,4E3K,4E3L,4E3M,4E3N,4E3O,4JXG,4JXS,4JXV,4JXW,4KG2,4KZ3,4KZ4,4KZ5,4KZ6,4KZ7,4KZ8,4KZ9,4KZA,4KZB,4LV0,4LV1,4LV2,4LV3,4OKP,4OLD,4OLG,6DPT,6DPX,6DPY,6DPZ,6T35,6T3D,6T5Y,6T7L,6TBW,6TPM,6WGQ,6YEN,6YEO,6YPD

> <UniProt (SwissProt) Recommended Name of Target Chain>
Beta-lactamase

> <UniProt (SwissProt) Entry Name of Target Chain>
AMPC_ECOLI

> <UniProt (SwissProt) Primary ID of Target Chain>
P00811

> <UniProt (SwissProt) Secondary ID(s) of Target Chain>
Q2M6F2

> <UniProt (SwissProt) Alternative ID(s) of Target Chain>


> <UniProt (TrEMBL) Submitted Name of Target Chain>


> <UniProt (TrEMBL) Entry Name of Target Chain>


> <UniProt (TrEMBL) Primary ID of Target Chain>


> <UniProt (TrEMBL) Secondary ID(s) of Target Chain>


> <UniProt (TrEMBL) Alternative ID(s) of Target Chain>


$$$$

  Mrv0541 11191401012D          

 22 23  0  0  0  0            999 V2000
   -0.7396    1.4778    0.0000 C   0  0  0  0  0  0  0  0  0  0  0  0
   -1.5646    1.4778    0.0000 C   0  0  0  0  0  0  0  0  0  0  0  0
   -1.9771    2.1922    0.0000 C   0  0  0  0  0  0  0  0  0  0  0  0
   -1.5646    2.9067    0.0000 C   0  0  0  0  0  0  0  0  0  0  0  0
   -0.7396    2.9067    0.0000 C   0  0  0  0  0  0  0  0  0  0  0  0
   -0.3271    2.1922    0.0000 C   0  0  0  0  0  0  0  0  0  0  0  0
   -1.9771    3.6212    0.0000 B   0  0  0  0  0  0  0  0  0  0  0  0
   -2.8021    3.6212    0.0000 O   0  0  0  0  0  0  0  0  0  0  0  0
   -1.5646    4.3356    0.0000 O   0  0  0  0  0  0  0  0  0  0  0  0
    0.4979    2.1922    0.0000 N   0  0  0  0  0  0  0  0  0  0  0  0
    0.9104    1.4778    0.0000 S   0  0  0  0  0  0  0  0  0  0  0  0
    0.4979    0.7633    0.0000 O   0  0  0  0  0  0  0  0  0  0  0  0
    1.7354    1.4778    0.0000 C   0  0  0  0  0  0  0  0  0  0  0  0
    1.3229    2.1923    0.0000 O   0  0  0  0  0  0  0  0  0  0  0  0
    2.9729    2.1923    0.0000 C   0  0  0  0  0  0  0  0  0  0  0  0
    2.1479    2.1923    0.0000 C   0  0  0  0  0  0  0  0  0  0  0  0
    2.1479    0.7633    0.0000 C   0  0  0  0  0  0  0  0  0  0  0  0
    2.9729    0.7634    0.0000 C   0  0  0  0  0  0  0  0  0  0  0  0
    3.3854    1.4778    0.0000 C   0  0  0  0  0  0  0  0  0  0  0  0
    3.3854    0.0489    0.0000 N   0  0  0  0  0  0  0  0  0  0  0  0
    2.9729   -0.6656    0.0000 O   0  0  0  0  0  0  0  0  0  0  0  0
    4.2104    0.0489    0.0000 O   0  0  0  0  0  0  0  0  0  0  0  0
  1  2  2  0  0  0  0
  2  3  1  0  0  0  0
  3  4  2  0  0  0  0
  4  5  1  0  0  0  0
  5  6  2  0  0  0  0
  1  6  1  0  0  0  0
  4  7  1  0  0  0  0
  7  8  1  0  0  0  0
  7  9  1  0  0  0  0
  6 10  1  0  0  0  0
 10 11  1  0  0  0  0
 11 12  2  0  0  0  0
 11 13  1  0  0  0  0
 11 14  2  0  0  0  0
 16 13  2  0  0  0  0
 13 17  1  0  0  0  0
 15 16  1  0  0  0  0
 17 18  2  0  0  0  0
 18 19  1  0  0  0  0
 15 19  2  0  0  0  0
 18 20  1  0  0  0  0
 20 21  2  0  0  0  0
 20 22  2  0  0  0  0
M  END
> <From>
www.bindingDB.org

> <BindingDB Reactant_set_id>
74839

> <Ligand InChI>
InChI=1S/C12H11BN2O6S/c16-13(17)9-3-1-4-10(7-9)14-22(20,21)12-6-2-5-11(8-12)15(18)19/h1-8,14,16-17H

> <Ligand InChI Key>
AQFNQEHXDLOIDW-UHFFFAOYSA-N

> <BindingDB MonomerID>
39853

> <BindingDB Ligand Name>
Amide and sulfonamide derivatives, 37

> <Target Name>
Beta-lactamase

> <Target Source Organism According to Curator or DataSource>
Escherichia coli

> <Ki (nM)>
 9.0e+2

> <IC50 (nM)>


> <Kd (nM)>


> <EC50 (nM)>


> <kon (M-1-s-1)>


> <koff (s-1)>


> <pH>
7

> <Temp C>


> <Curation/DataSource>
Curated from the literature by BindingDB

> <Article DOI>
10.1016/S1074-5521(01)00034-5

> <BindingDB Entry DOI>
10.7270/Q27M06BZ

> <PMID>
11410378

> <PubChem AID>
aid1799472

> <Patent Number>


> <Authors>
Tondi, D; Powers, RA; Caselli, E; Negri, MC; Bl&aacute;zquez, J; Costi, MP; Shoichet, BK

> <Institution>
Northwestern University

> <Link to Ligand in BindingDB>
http://www.bindingdb.org/bind/chemsearch/marvin/MolStructure.jsp?monomerid=39853

> <Link to Ligand-Target Pair in BindingDB>
http://www.bindingdb.org/jsp/dbsearch/PrimarySearch_ki.jsp?energyterm=kJ/mole&tag=pol&polymerid=4401&target=Beta-lactamase&column=ki&startPg=0&Increment=50&submit=Search

> <Link to Ligand-Target Pair in BindingDB>
http://www.bindingdb.org/jsp/dbsearch/PrimarySearch_ki.jsp?energyterm=kJ/mole&tag=r21&monomerid=39853&enzyme=Beta-lactamase&column=ki&startPg=0&Increment=50&submit=Search

> <Ligand HET ID in PDB>


> <PDB ID(s) for Ligand-Target Complex>


> <PubChem CID of Ligand>
52940009

> <PubChem SID of Ligand>
123080161

> <ChEBI ID of Ligand>


> <ChEMBL ID of Ligand>


> <DrugBank ID of Ligand>


> <IUPHAR_GRAC ID of Ligand>


> <KEGG ID of Ligand>
C06058

> <ZINC ID of Ligand>


> <Number of Protein Chains in Target (bigger than 1 implies a multichain complex)>
1

> <BindingDB Target Chain Sequence>
MFKTTLCALLITASCSTFAAPQQINDIVHRTITPLIEQQKIPGMAVAVIYQGKPYYFTWGYADIAKKQPVTQQTLFELGSVSKTFTGVLGGDAIARGEIKLSDPTTKYWPELTAKQWNGITLLHLATYTAGGLPLQVPDEVKSSSDLLRFYQNWQPAWAPGTQRLYANSSIGLFGALAVKPSGLSFEQAMQTRVFQPLKLNHTWINVPPAEEKNYAWGYREGKAVHVSPGALDAEAYGVKSTIEDMARWVQSNLKPLDINEKTLQQGIQLAQSRYWQTGDMYQGLGWEMLDWPVNPDSIINGSDNKIALAARPVKAITPPTPAVRASWVHKTGATGGFGSYVAFIPEKELGIVMLANKNYPNPARVDAAWQILNALQ

> <PDB ID(s) of Target Chain>
1C3B,1FCO,1FSW,1FSY,1GA9,1IEL,1IEM,1KDS,1KDW,1KE0,1KE3,1KE4,1KVM,1L2S,1LL5,1LL9,1LLB,1MXO,1MY8,1XGI,1XGJ,2BLS,2HDQ,2HDR,2HDS,2HDU,2I72,2P9V,2PU2,2PU4,2R9W,2R9X,2RCX,3BLS,3BM6,3GQZ,3GR2,3GRJ,3GSG,3GTC,3GV9,3GVB,3O86,3O87,3O88,4E3I,4E3J,4E3K,4E3L,4E3M,4E3N,4E3O,4JXG,4JXS,4JXV,4JXW,4KG2,4KZ3,4KZ4,4KZ5,4KZ6,4KZ7,4KZ8,4KZ9,4KZA,4KZB,4LV0,4LV1,4LV2,4LV3,4OKP,4OLD,4OLG,6DPT,6DPX,6DPY,6DPZ,6T35,6T3D,6T5Y,6T7L,6TBW,6TPM,6WGQ,6YEN,6YEO,6YPD

> <UniProt (SwissProt) Recommended Name of Target Chain>
Beta-lactamase

> <UniProt (SwissProt) Entry Name of Target Chain>
AMPC_ECOLI

> <UniProt (SwissProt) Primary ID of Target Chain>
P00811

> <UniProt (SwissProt) Secondary ID(s) of Target Chain>
Q2M6F2

> <UniProt (SwissProt) Alternative ID(s) of Target Chain>


> <UniProt (TrEMBL) Submitted Name of Target Chain>


> <UniProt (TrEMBL) Entry Name of Target Chain>


> <UniProt (TrEMBL) Primary ID of Target Chain>


> <UniProt (TrEMBL) Secondary ID(s) of Target Chain>


> <UniProt (TrEMBL) Alternative ID(s) of Target Chain>


$$$$

  Mrv0541 11221409162D          

 20 21  0  0  0  0            999 V2000
   -1.9486  -19.7255    0.0000 C   0  0  0  0  0  0  0  0  0  0  0  0
   -1.9498  -20.5475    0.0000 C   0  0  0  0  0  0  0  0  0  0  0  0
   -1.2318  -20.9598    0.0000 C   0  0  0  0  0  0  0  0  0  0  0  0
   -1.2336  -19.3134    0.0000 C   0  0  0  0  0  0  0  0  0  0  0  0
   -0.5234  -19.7219    0.0000 C   0  0  0  0  0  0  0  0  0  0  0  0
   -0.5231  -20.5476    0.0000 C   0  0  0  0  0  0  0  0  0  0  0  0
    0.2620  -20.7997    0.0000 S   0  0  0  0  0  0  0  0  0  0  0  0
    0.7413  -20.1406    0.0000 C   0  0  0  0  0  0  0  0  0  0  0  0
    0.2615  -19.4695    0.0000 C   0  0  0  0  0  0  0  0  0  0  0  0
    1.5651  -20.1445    0.0000 B   0  0  0  0  0  0  0  0  0  0  0  0
    1.9772  -20.8536    0.0000 O   0  0  0  0  0  0  0  0  0  0  0  0
    1.9767  -19.4268    0.0000 O   0  0  0  0  0  0  0  0  0  0  0  0
   -2.6704  -19.3096    0.0000 C   0  0  0  0  0  0  0  0  0  0  0  0
   -3.3821  -19.7257    0.0000 N   0  0  0  0  0  0  0  0  0  0  0  0
   -3.3717  -20.5538    0.0000 C   0  0  0  0  0  0  0  0  0  0  0  0
   -2.6604  -20.9657    0.0000 C   0  0  0  0  0  0  0  0  0  0  0  0
   -2.6625  -21.7939    0.0000 O   0  0  0  0  0  0  0  0  0  0  0  0
   -4.1001  -19.3220    0.0000 C   0  0  0  0  0  0  0  0  0  0  0  0
   -4.8178  -19.7420    0.0000 C   0  0  0  0  0  0  0  0  0  0  0  0
   -5.5357  -19.3341    0.0000 O   0  0  0  0  0  0  0  0  0  0  0  0
  4  1  1  0  0  0  0
  8 10  1  0  0  0  0
  5  6  1  0  0  0  0
 10 11  1  0  0  0  0
 10 12  1  0  0  0  0
  2  3  1  0  0  0  0
  1 13  1  0  0  0  0
  3  6  2  0  0  0  0
 13 14  1  0  0  0  0
  1  2  2  0  0  0  0
 14 15  1  0  0  0  0
  5  4  2  0  0  0  0
 15 16  1  0  0  0  0
  6  7  1  0  0  0  0
 16 17  1  0  0  0  0
  7  8  1  0  0  0  0
 14 18  1  0  0  0  0
  8  9  2  0  0  0  0
 18 19  1  0  0  0  0
  9  5  1  0  0  0  0
 19 20  1  0  0  0  0
M  END
> <From>
www.bindingDB.org

> <BindingDB Reactant_set_id>
50404420

> <Ligand InChI>
InChI=1S/C13H18BNO4S/c16-5-3-15(4-6-17)9-10-1-2-12-11(7-10)8-13(20-12)14(18)19/h1-2,7-8,16-19H,3-6,9H2

> <Ligand InChI Key>
ZCHQBQNKHHGUIG-UHFFFAOYSA-N

> <BindingDB MonomerID>
50225372

> <BindingDB Ligand Name>
CHEMBL235097::pinacol 5-{[bis(2-hydroxyethyl)amino]methyl}benzo[b]thiophen-2-ylboronate

> <Target Name>
Beta-lactamase TEM

> <Target Source Organism According to Curator or DataSource>


> <Ki (nM)>
 1000

> <IC50 (nM)>


> <Kd (nM)>


> <EC50 (nM)>


> <kon (M-1-s-1)>


> <koff (s-1)>


> <pH>


> <Temp C>


> <Curation/DataSource>
ChEMBL

> <Article DOI>
10.1021/jm070643q

> <BindingDB Entry DOI>
10.7270/Q21N80W5

> <PMID>
17956081

> <PubChem AID>


> <Patent Number>


> <Authors>
Venturelli, A; Tondi, D; Cancian, L; Morandi, F; Cannazza, G; Segatore, B; Prati, F; Amicosante, G; Shoichet, BK; Costi, MP

> <Institution>
Universit&#224; degli Studi di Modena e Reggio Emilia

> <Link to Ligand in BindingDB>
http://www.bindingdb.org/bind/chemsearch/marvin/MolStructure.jsp?monomerid=50225372

> <Link to Ligand-Target Pair in BindingDB>
http://www.bindingdb.org/jsp/dbsearch/PrimarySearch_ki.jsp?energyterm=kJ/mole&tag=pol&polymerid=7704&target=Beta-lactamase+TEM&column=ki&startPg=0&Increment=50&submit=Search

> <Link to Ligand-Target Pair in BindingDB>
http://www.bindingdb.org/jsp/dbsearch/PrimarySearch_ki.jsp?energyterm=kJ/mole&tag=r21&monomerid=50225372&enzyme=Beta-lactamase+TEM&column=ki&startPg=0&Increment=50&submit=Search

> <Ligand HET ID in PDB>


> <PDB ID(s) for Ligand-Target Complex>


> <PubChem CID of Ligand>
23655488

> <PubChem SID of Ligand>
104096678

> <ChEBI ID of Ligand>


> <ChEMBL ID of Ligand>
CHEMBL235097

> <DrugBank ID of Ligand>


> <IUPHAR_GRAC ID of Ligand>


> <KEGG ID of Ligand>


> <ZINC ID of Ligand>


> <Number of Protein Chains in Target (bigger than 1 implies a multichain complex)>
1

> <BindingDB Target Chain Sequence>
MSIQHFRVALIPFFAAFCLPVFAHPETLVKVKDAEDQLGARVGYIELDLNSGKILESFRPEERFPMMSTFKVLLCGAVLSRVDAGQEQLGRRIHYSQNDLVEYSPVTEKHLTDGMTVRELCSAAITMSDNTAANLLLTTIGGPKELTAFLHNMGDHVTRLDRWEPELNEAIPNDERDTTMPAAMATTLRKLLTGELLTLASRQQLIDWMEADKVAGPLLRSALPAGWFIADKSGAGERGSRGIIAALGPDGKPSRIVVIYTTGSQATMDERNRQIAEIGASLIKHW

> <PDB ID(s) of Target Chain>
1ERM,1ERO,1ERQ,1ESU,1FQG,1JTD,1JVJ,1JWP,1JWV,1LHY,1LI9,1M40,1NXY,1NY0,1NYM,1NYY,1PZO,1PZP,1S0W,1XPB,1YT4,2V1Z,2V20,3CMZ,3DTM,3JYI,3P98,4DXB,4DXC,4GKU,4ZJ2,5AQ8,5HVI,5HW1,5HW5,5NPO,6B2N,7QLP,7QNK,7U6Q,8DE0

> <UniProt (SwissProt) Recommended Name of Target Chain>
Beta-lactamase TEM

> <UniProt (SwissProt) Entry Name of Target Chain>
BLAT_ECOLX

> <UniProt (SwissProt) Primary ID of Target Chain>
P62593

> <UniProt (SwissProt) Secondary ID(s) of Target Chain>
P00810 Q47313

> <UniProt (SwissProt) Alternative ID(s) of Target Chain>


> <UniProt (TrEMBL) Submitted Name of Target Chain>


> <UniProt (TrEMBL) Entry Name of Target Chain>


> <UniProt (TrEMBL) Primary ID of Target Chain>


> <UniProt (TrEMBL) Secondary ID(s) of Target Chain>


> <UniProt (TrEMBL) Alternative ID(s) of Target Chain>


$$$$

  Mrv0541 11211416132D          

 18 19  0  0  0  0            999 V2000
    0.9542    1.3458    0.0000 C   0  0  0  0  0  0  0  0  0  0  0  0
    1.8500    2.3333    0.0000 N   0  0  0  0  0  0  0  0  0  0  0  0
    0.2417    0.9333    0.0000 N   0  0  0  0  0  0  0  0  0  0  0  0
    1.7042    1.0083    0.0000 C   0  0  0  0  0  0  0  0  0  0  0  0
    1.0417    2.1583    0.0000 C   0  0  0  0  0  0  0  0  0  0  0  0
    2.2542    1.6208    0.0000 O   0  0  0  0  0  0  0  0  0  0  0  0
   -1.1833   -2.3792    0.0000 B   0  0  0  0  0  0  0  0  0  0  0  0
    0.2500    0.1083    0.0000 N   0  0  0  0  0  0  0  0  0  0  0  0
   -1.1833   -1.5542    0.0000 C   0  0  0  0  0  0  0  0  0  0  0  0
   -0.4750   -1.1417    0.0000 C   0  0  0  0  0  0  0  0  0  0  0  0
   -0.4750   -0.3167    0.0000 C   0  0  0  0  0  0  0  0  0  0  0  0
   -1.9083   -2.7917    0.0000 O   0  0  0  0  0  0  0  0  0  0  0  0
   -0.4750   -2.7917    0.0000 O   0  0  0  0  0  0  0  0  0  0  0  0
    1.8792    0.2000    0.0000 C   0  0  0  0  0  0  0  0  0  0  0  0
    0.4375    2.7083    0.0000 C   0  0  0  0  0  0  0  0  0  0  0  0
   -1.9083   -1.1417    0.0000 C   0  0  0  0  0  0  0  0  0  0  0  0
   -1.9083   -0.3167    0.0000 C   0  0  0  0  0  0  0  0  0  0  0  0
   -1.1833    0.0958    0.0000 C   0  0  0  0  0  0  0  0  0  0  0  0
  2  5  2  0  0  0  0
  3  1  1  0  0  0  0
  4  1  2  0  0  0  0
  5  1  1  0  0  0  0
  6  4  1  0  0  0  0
  7  9  1  0  0  0  0
  8  3  2  0  0  0  0
  9 10  2  0  0  0  0
 10 11  1  0  0  0  0
 11  8  1  0  0  0  0
 12  7  1  0  0  0  0
 13  7  1  0  0  0  0
 14  4  1  0  0  0  0
 15  5  1  0  0  0  0
 16 17  2  0  0  0  0
 17 18  1  0  0  0  0
 18 11  2  0  0  0  0
  2  6  1  0  0  0  0
  9 16  1  0  0  0  0
M  END
> <From>
www.bindingDB.org

> <BindingDB Reactant_set_id>
50275069

> <Ligand InChI>
InChI=1S/C11H12BN3O3/c1-7-11(8(2)18-15-7)14-13-10-5-3-4-9(6-10)12(16)17/h3-6,16-17H,1-2H3/b14-13+

> <Ligand InChI Key>
NEJYHBWEPPDMNU-BUHFOSPRSA-N

> <BindingDB MonomerID>
50149787

> <BindingDB Ligand Name>
Aza-boronic acid derivative::CHEMBL366099

> <Target Name>
Beta-lactamase

> <Target Source Organism According to Curator or DataSource>
Escherichia coli

> <Ki (nM)>
 1000

> <IC50 (nM)>


> <Kd (nM)>


> <EC50 (nM)>


> <kon (M-1-s-1)>


> <koff (s-1)>


> <pH>


> <Temp C>


> <Curation/DataSource>
ChEMBL

> <Article DOI>
10.1016/j.bmcl.2004.05.054

> <BindingDB Entry DOI>
10.7270/Q2XW4J8P

> <PMID>
15225711

> <PubChem AID>


> <Patent Number>


> <Authors>
Buzzoni, V; Blazquez, J; Ferrari, S; Calo, S; Venturelli, A; Costi, MP

> <Institution>
Universit&#224; degli Studi di Modena e Reggio Emilia

> <Link to Ligand in BindingDB>
http://www.bindingdb.org/bind/chemsearch/marvin/MolStructure.jsp?monomerid=50149787

> <Link to Ligand-Target Pair in BindingDB>
http://www.bindingdb.org/jsp/dbsearch/PrimarySearch_ki.jsp?energyterm=kJ/mole&tag=pol&polymerid=4401&target=Beta-lactamase&column=ki&startPg=0&Increment=50&submit=Search

> <Link to Ligand-Target Pair in BindingDB>
http://www.bindingdb.org/jsp/dbsearch/PrimarySearch_ki.jsp?energyterm=kJ/mole&tag=r21&monomerid=50149787&enzyme=Beta-lactamase&column=ki&startPg=0&Increment=50&submit=Search

> <Ligand HET ID in PDB>


> <PDB ID(s) for Ligand-Target Complex>


> <PubChem CID of Ligand>
44392745

> <PubChem SID of Ligand>
104037862

> <ChEBI ID of Ligand>


> <ChEMBL ID of Ligand>
CHEMBL366099

> <DrugBank ID of Ligand>


> <IUPHAR_GRAC ID of Ligand>


> <KEGG ID of Ligand>


> <ZINC ID of Ligand>


> <Number of Protein Chains in Target (bigger than 1 implies a multichain complex)>
1

> <BindingDB Target Chain Sequence>
MFKTTLCALLITASCSTFAAPQQINDIVHRTITPLIEQQKIPGMAVAVIYQGKPYYFTWGYADIAKKQPVTQQTLFELGSVSKTFTGVLGGDAIARGEIKLSDPTTKYWPELTAKQWNGITLLHLATYTAGGLPLQVPDEVKSSSDLLRFYQNWQPAWAPGTQRLYANSSIGLFGALAVKPSGLSFEQAMQTRVFQPLKLNHTWINVPPAEEKNYAWGYREGKAVHVSPGALDAEAYGVKSTIEDMARWVQSNLKPLDINEKTLQQGIQLAQSRYWQTGDMYQGLGWEMLDWPVNPDSIINGSDNKIALAARPVKAITPPTPAVRASWVHKTGATGGFGSYVAFIPEKELGIVMLANKNYPNPARVDAAWQILNALQ

> <PDB ID(s) of Target Chain>
1C3B,1FCO,1FSW,1FSY,1GA9,1IEL,1IEM,1KDS,1KDW,1KE0,1KE3,1KE4,1KVM,1L2S,1LL5,1LL9,1LLB,1MXO,1MY8,1XGI,1XGJ,2BLS,2HDQ,2HDR,2HDS,2HDU,2I72,2P9V,2PU2,2PU4,2R9W,2R9X,2RCX,3BLS,3BM6,3GQZ,3GR2,3GRJ,3GSG,3GTC,3GV9,3GVB,3O86,3O87,3O88,4E3I,4E3J,4E3K,4E3L,4E3M,4E3N,4E3O,4JXG,4JXS,4JXV,4JXW,4KG2,4KZ3,4KZ4,4KZ5,4KZ6,4KZ7,4KZ8,4KZ9,4KZA,4KZB,4LV0,4LV1,4LV2,4LV3,4OKP,4OLD,4OLG,6DPT,6DPX,6DPY,6DPZ,6T35,6T3D,6T5Y,6T7L,6TBW,6TPM,6WGQ,6YEN,6YEO,6YPD

> <UniProt (SwissProt) Recommended Name of Target Chain>
Beta-lactamase

> <UniProt (SwissProt) Entry Name of Target Chain>
AMPC_ECOLI

> <UniProt (SwissProt) Primary ID of Target Chain>
P00811

> <UniProt (SwissProt) Secondary ID(s) of Target Chain>
Q2M6F2

> <UniProt (SwissProt) Alternative ID(s) of Target Chain>


> <UniProt (TrEMBL) Submitted Name of Target Chain>


> <UniProt (TrEMBL) Entry Name of Target Chain>


> <UniProt (TrEMBL) Primary ID of Target Chain>


> <UniProt (TrEMBL) Secondary ID(s) of Target Chain>


> <UniProt (TrEMBL) Alternative ID(s) of Target Chain>


$$$$

  Mrv0541 11231409112D          

 22 23  0  0  0  0            999 V2000
   -1.6264  -11.0833    0.0000 C   0  0  0  0  0  0  0  0  0  0  0  0
   -1.6276  -11.9107    0.0000 C   0  0  0  0  0  0  0  0  0  0  0  0
   -0.9128  -12.3235    0.0000 C   0  0  0  0  0  0  0  0  0  0  0  0
   -0.1963  -11.9102    0.0000 C   0  0  0  0  0  0  0  0  0  0  0  0
   -0.1992  -11.0797    0.0000 C   0  0  0  0  0  0  0  0  0  0  0  0
   -0.9146  -10.6705    0.0000 C   0  0  0  0  0  0  0  0  0  0  0  0
   -2.3424  -12.3226    0.0000 O   0  0  0  0  0  0  0  0  0  0  0  0
    0.5188  -12.3216    0.0000 C   0  0  0  0  0  0  0  0  0  0  0  0
    0.5201  -13.1466    0.0000 O   0  0  0  0  0  0  0  0  0  0  0  0
    1.2326  -11.9079    0.0000 O   0  0  0  0  0  0  0  0  0  0  0  0
   -2.3410  -10.6710    0.0000 N   0  0  0  0  0  0  0  0  0  0  0  0
   -2.3412   -9.8460    0.0000 S   0  0  0  0  0  0  0  0  0  0  0  0
   -3.0558   -9.4339    0.0000 C   0  0  0  0  0  0  0  0  0  0  0  0
   -1.9333   -9.1292    0.0000 O   0  0  0  0  0  0  0  0  0  0  0  0
   -1.6292  -10.2583    0.0000 O   0  0  0  0  0  0  0  0  0  0  0  0
   -3.0685   -8.6073    0.0000 C   0  0  0  0  0  0  0  0  0  0  0  0
   -3.8568   -8.3641    0.0000 C   0  0  0  0  0  0  0  0  0  0  0  0
   -4.3318   -9.0387    0.0000 S   0  0  0  0  0  0  0  0  0  0  0  0
   -3.8368   -9.6987    0.0000 C   0  0  0  0  0  0  0  0  0  0  0  0
   -4.2377  -10.4236    0.0000 C   0  0  0  0  0  0  0  0  0  0  0  0
   -5.0626  -10.4396    0.0000 O   0  0  0  0  0  0  0  0  0  0  0  0
   -3.8115  -11.1300    0.0000 O   0  0  0  0  0  0  0  0  0  0  0  0
  1 11  1  0  0  0  0
  5  6  1  0  0  0  0
 11 12  1  0  0  0  0
  6  1  2  0  0  0  0
 12 13  1  0  0  0  0
  1  2  1  0  0  0  0
 12 14  2  0  0  0  0
  2  7  1  0  0  0  0
 12 15  2  0  0  0  0
 13 16  1  0  0  0  0
  3  4  1  0  0  0  0
  4  8  1  0  0  0  0
  8  9  2  0  0  0  0
 16 17  2  0  0  0  0
 17 18  1  0  0  0  0
 18 19  1  0  0  0  0
 19 13  2  0  0  0  0
  4  5  2  0  0  0  0
  8 10  1  0  0  0  0
  2  3  2  0  0  0  0
 20 21  1  0  0  0  0
 20 22  2  0  0  0  0
 19 20  1  0  0  0  0
M  END
> <From>
www.bindingDB.org

> <BindingDB Reactant_set_id>
50591777

> <Ligand InChI>
InChI=1S/C12H9NO7S2/c14-8-5-6(11(15)16)1-2-7(8)13-22(19,20)9-3-4-21-10(9)12(17)18/h1-5,13-14H,(H,15,16)(H,17,18)

> <Ligand InChI Key>
RDPXXOOKKRIKFN-UHFFFAOYSA-N

> <BindingDB MonomerID>
50324682

> <BindingDB Ligand Name>
3-(N-(4-carboxy-2-hydroxyphenyl)sulfamoyl)thiophene-2-carboxylic acid::3-{[(4-CARBOXY-2-HYDROXYANILINE]SULFONYL}THIOPHENE-2-CARBOXYLIC ACID::CHEMBL1222313

> <Target Name>
Beta-lactamase

> <Target Source Organism According to Curator or DataSource>
Escherichia coli

> <Ki (nM)>
 1000

> <IC50 (nM)>


> <Kd (nM)>


> <EC50 (nM)>


> <kon (M-1-s-1)>


> <koff (s-1)>


> <pH>


> <Temp C>


> <Curation/DataSource>
ChEMBL

> <Article DOI>
10.1038/nchembio831

> <BindingDB Entry DOI>
10.7270/Q2FN16DF

> <PMID>
17072304

> <PubChem AID>


> <Patent Number>


> <Authors>
Babaoglu, K; Shoichet, BK

> <Institution>
TBA

> <Link to Ligand in BindingDB>
http://www.bindingdb.org/bind/chemsearch/marvin/MolStructure.jsp?monomerid=50324682

> <Link to Ligand-Target Pair in BindingDB>
http://www.bindingdb.org/jsp/dbsearch/PrimarySearch_ki.jsp?energyterm=kJ/mole&tag=pol&polymerid=4401&target=Beta-lactamase&column=ki&startPg=0&Increment=50&submit=Search

> <Link to Ligand-Target Pair in BindingDB>
http://www.bindingdb.org/jsp/dbsearch/PrimarySearch_ki.jsp?energyterm=kJ/mole&tag=r21&monomerid=50324682&enzyme=Beta-lactamase&column=ki&startPg=0&Increment=50&submit=Search

> <Ligand HET ID in PDB>
HTC

> <PDB ID(s) for Ligand-Target Complex>
1XGJ

> <PubChem CID of Ligand>
657106

> <PubChem SID of Ligand>
117646003

> <ChEBI ID of Ligand>


> <ChEMBL ID of Ligand>
CHEMBL1222313

> <DrugBank ID of Ligand>
DB07927

> <IUPHAR_GRAC ID of Ligand>


> <KEGG ID of Ligand>


> <ZINC ID of Ligand>
ZINC03881294

> <Number of Protein Chains in Target (bigger than 1 implies a multichain complex)>
1

> <BindingDB Target Chain Sequence>
MFKTTLCALLITASCSTFAAPQQINDIVHRTITPLIEQQKIPGMAVAVIYQGKPYYFTWGYADIAKKQPVTQQTLFELGSVSKTFTGVLGGDAIARGEIKLSDPTTKYWPELTAKQWNGITLLHLATYTAGGLPLQVPDEVKSSSDLLRFYQNWQPAWAPGTQRLYANSSIGLFGALAVKPSGLSFEQAMQTRVFQPLKLNHTWINVPPAEEKNYAWGYREGKAVHVSPGALDAEAYGVKSTIEDMARWVQSNLKPLDINEKTLQQGIQLAQSRYWQTGDMYQGLGWEMLDWPVNPDSIINGSDNKIALAARPVKAITPPTPAVRASWVHKTGATGGFGSYVAFIPEKELGIVMLANKNYPNPARVDAAWQILNALQ

> <PDB ID(s) of Target Chain>
1C3B,1FCO,1FSW,1FSY,1GA9,1IEL,1IEM,1KDS,1KDW,1KE0,1KE3,1KE4,1KVM,1L2S,1LL5,1LL9,1LLB,1MXO,1MY8,1XGI,1XGJ,2BLS,2HDQ,2HDR,2HDS,2HDU,2I72,2P9V,2PU2,2PU4,2R9W,2R9X,2RCX,3BLS,3BM6,3GQZ,3GR2,3GRJ,3GSG,3GTC,3GV9,3GVB,3O86,3O87,3O88,4E3I,4E3J,4E3K,4E3L,4E3M,4E3N,4E3O,4JXG,4JXS,4JXV,4JXW,4KG2,4KZ3,4KZ4,4KZ5,4KZ6,4KZ7,4KZ8,4KZ9,4KZA,4KZB,4LV0,4LV1,4LV2,4LV3,4OKP,4OLD,4OLG,6DPT,6DPX,6DPY,6DPZ,6T35,6T3D,6T5Y,6T7L,6TBW,6TPM,6WGQ,6YEN,6YEO,6YPD

> <UniProt (SwissProt) Recommended Name of Target Chain>
Beta-lactamase

> <UniProt (SwissProt) Entry Name of Target Chain>
AMPC_ECOLI

> <UniProt (SwissProt) Primary ID of Target Chain>
P00811

> <UniProt (SwissProt) Secondary ID(s) of Target Chain>
Q2M6F2

> <UniProt (SwissProt) Alternative ID(s) of Target Chain>


> <UniProt (TrEMBL) Submitted Name of Target Chain>


> <UniProt (TrEMBL) Entry Name of Target Chain>


> <UniProt (TrEMBL) Primary ID of Target Chain>


> <UniProt (TrEMBL) Secondary ID(s) of Target Chain>


> <UniProt (TrEMBL) Alternative ID(s) of Target Chain>


$$$$

  Mrv0541 11191401012D          

 28 30  0  0  0  0            999 V2000
   -0.7396    1.4778    0.0000 C   0  0  0  0  0  0  0  0  0  0  0  0
   -1.5646    1.4778    0.0000 C   0  0  0  0  0  0  0  0  0  0  0  0
   -1.9771    2.1922    0.0000 C   0  0  0  0  0  0  0  0  0  0  0  0
   -1.5646    2.9067    0.0000 C   0  0  0  0  0  0  0  0  0  0  0  0
   -0.7396    2.9067    0.0000 C   0  0  0  0  0  0  0  0  0  0  0  0
   -0.3271    2.1922    0.0000 C   0  0  0  0  0  0  0  0  0  0  0  0
   -1.9771    3.6212    0.0000 B   0  0  0  0  0  0  0  0  0  0  0  0
   -2.8021    3.6212    0.0000 O   0  0  0  0  0  0  0  0  0  0  0  0
   -1.5646    4.3356    0.0000 O   0  0  0  0  0  0  0  0  0  0  0  0
    0.4979    2.1922    0.0000 N   0  0  0  0  0  0  0  0  0  0  0  0
    0.9104    1.4778    0.0000 S   0  0  0  0  0  0  0  0  0  0  0  0
    0.4979    0.7633    0.0000 O   0  0  0  0  0  0  0  0  0  0  0  0
    1.7354    1.4778    0.0000 C   0  0  0  0  0  0  0  0  0  0  0  0
    1.3229    2.1923    0.0000 O   0  0  0  0  0  0  0  0  0  0  0  0
    2.0709    2.2315    0.0000 C   0  0  0  0  0  0  0  0  0  0  0  0
    2.3485    0.9258    0.0000 S   0  0  0  0  0  0  0  0  0  0  0  0
    3.0629    1.3383    0.0000 C   0  0  0  0  0  0  0  0  0  0  0  0
    2.8914    2.1453    0.0000 C   0  0  0  0  0  0  0  0  0  0  0  0
    3.8166    1.0028    0.0000 C   0  0  0  0  0  0  0  0  0  0  0  0
    4.5311    1.4153    0.0000 N   0  0  0  0  0  0  0  0  0  0  0  0
    5.2456    1.0028    0.0000 C   0  0  0  0  0  0  0  0  0  0  0  0
    5.9600    1.4153    0.0000 C   0  0  0  0  0  0  0  0  0  0  0  0
    5.2456    0.1778    0.0000 O   0  0  0  0  0  0  0  0  0  0  0  0
    6.6745    2.6528    0.0000 C   0  0  0  0  0  0  0  0  0  0  0  0
    5.9600    2.2403    0.0000 C   0  0  0  0  0  0  0  0  0  0  0  0
    6.6745    1.0028    0.0000 C   0  0  0  0  0  0  0  0  0  0  0  0
    7.3890    1.4153    0.0000 C   0  0  0  0  0  0  0  0  0  0  0  0
    7.3890    2.2403    0.0000 C   0  0  0  0  0  0  0  0  0  0  0  0
  1  2  2  0  0  0  0
  2  3  1  0  0  0  0
  3  4  2  0  0  0  0
  4  5  1  0  0  0  0
  5  6  2  0  0  0  0
  1  6  1  0  0  0  0
  4  7  1  0  0  0  0
  7  8  1  0  0  0  0
  7  9  1  0  0  0  0
  6 10  1  0  0  0  0
 10 11  1  0  0  0  0
 11 12  2  0  0  0  0
 11 13  1  0  0  0  0
 11 14  2  0  0  0  0
 15 13  2  0  0  0  0
 13 16  1  0  0  0  0
 16 17  1  0  0  0  0
 17 18  2  0  0  0  0
 15 18  1  0  0  0  0
 17 19  1  0  0  0  0
 19 20  1  0  0  0  0
 20 21  1  0  0  0  0
 21 22  1  0  0  0  0
 21 23  2  0  0  0  0
 25 22  2  0  0  0  0
 22 26  1  0  0  0  0
 24 25  1  0  0  0  0
 26 27  2  0  0  0  0
 27 28  1  0  0  0  0
 24 28  2  0  0  0  0
M  END
> <From>
www.bindingDB.org

> <BindingDB Reactant_set_id>
74834

> <Ligand InChI>
InChI=1S/C18H17BN2O5S2/c22-18(13-5-2-1-3-6-13)20-12-16-9-10-17(27-16)28(25,26)21-15-8-4-7-14(11-15)19(23)24/h1-11,21,23-24H,12H2,(H,20,22)

> <Ligand InChI Key>
WHHYUZHZDJKGHB-UHFFFAOYSA-N

> <BindingDB MonomerID>
39848

> <BindingDB Ligand Name>
Amide and sulfonamide derivatives, 32

> <Target Name>
Beta-lactamase

> <Target Source Organism According to Curator or DataSource>
Escherichia coli

> <Ki (nM)>
 1.02e+3

> <IC50 (nM)>


> <Kd (nM)>


> <EC50 (nM)>


> <kon (M-1-s-1)>


> <koff (s-1)>


> <pH>
7

> <Temp C>


> <Curation/DataSource>
Curated from the literature by BindingDB

> <Article DOI>
10.1016/S1074-5521(01)00034-5

> <BindingDB Entry DOI>
10.7270/Q27M06BZ

> <PMID>
11410378

> <PubChem AID>
aid1799472

> <Patent Number>


> <Authors>
Tondi, D; Powers, RA; Caselli, E; Negri, MC; Bl&aacute;zquez, J; Costi, MP; Shoichet, BK

> <Institution>
Northwestern University

> <Link to Ligand in BindingDB>
http://www.bindingdb.org/bind/chemsearch/marvin/MolStructure.jsp?monomerid=39848

> <Link to Ligand-Target Pair in BindingDB>
http://www.bindingdb.org/jsp/dbsearch/PrimarySearch_ki.jsp?energyterm=kJ/mole&tag=pol&polymerid=4401&target=Beta-lactamase&column=ki&startPg=0&Increment=50&submit=Search

> <Link to Ligand-Target Pair in BindingDB>
http://www.bindingdb.org/jsp/dbsearch/PrimarySearch_ki.jsp?energyterm=kJ/mole&tag=r21&monomerid=39848&enzyme=Beta-lactamase&column=ki&startPg=0&Increment=50&submit=Search

> <Ligand HET ID in PDB>


> <PDB ID(s) for Ligand-Target Complex>


> <PubChem CID of Ligand>
52940005

> <PubChem SID of Ligand>
123080156

> <ChEBI ID of Ligand>


> <ChEMBL ID of Ligand>


> <DrugBank ID of Ligand>


> <IUPHAR_GRAC ID of Ligand>


> <KEGG ID of Ligand>


> <ZINC ID of Ligand>


> <Number of Protein Chains in Target (bigger than 1 implies a multichain complex)>
1

> <BindingDB Target Chain Sequence>
MFKTTLCALLITASCSTFAAPQQINDIVHRTITPLIEQQKIPGMAVAVIYQGKPYYFTWGYADIAKKQPVTQQTLFELGSVSKTFTGVLGGDAIARGEIKLSDPTTKYWPELTAKQWNGITLLHLATYTAGGLPLQVPDEVKSSSDLLRFYQNWQPAWAPGTQRLYANSSIGLFGALAVKPSGLSFEQAMQTRVFQPLKLNHTWINVPPAEEKNYAWGYREGKAVHVSPGALDAEAYGVKSTIEDMARWVQSNLKPLDINEKTLQQGIQLAQSRYWQTGDMYQGLGWEMLDWPVNPDSIINGSDNKIALAARPVKAITPPTPAVRASWVHKTGATGGFGSYVAFIPEKELGIVMLANKNYPNPARVDAAWQILNALQ

> <PDB ID(s) of Target Chain>
1C3B,1FCO,1FSW,1FSY,1GA9,1IEL,1IEM,1KDS,1KDW,1KE0,1KE3,1KE4,1KVM,1L2S,1LL5,1LL9,1LLB,1MXO,1MY8,1XGI,1XGJ,2BLS,2HDQ,2HDR,2HDS,2HDU,2I72,2P9V,2PU2,2PU4,2R9W,2R9X,2RCX,3BLS,3BM6,3GQZ,3GR2,3GRJ,3GSG,3GTC,3GV9,3GVB,3O86,3O87,3O88,4E3I,4E3J,4E3K,4E3L,4E3M,4E3N,4E3O,4JXG,4JXS,4JXV,4JXW,4KG2,4KZ3,4KZ4,4KZ5,4KZ6,4KZ7,4KZ8,4KZ9,4KZA,4KZB,4LV0,4LV1,4LV2,4LV3,4OKP,4OLD,4OLG,6DPT,6DPX,6DPY,6DPZ,6T35,6T3D,6T5Y,6T7L,6TBW,6TPM,6WGQ,6YEN,6YEO,6YPD

> <UniProt (SwissProt) Recommended Name of Target Chain>
Beta-lactamase

> <UniProt (SwissProt) Entry Name of Target Chain>
AMPC_ECOLI

> <UniProt (SwissProt) Primary ID of Target Chain>
P00811

> <UniProt (SwissProt) Secondary ID(s) of Target Chain>
Q2M6F2

> <UniProt (SwissProt) Alternative ID(s) of Target Chain>


> <UniProt (TrEMBL) Submitted Name of Target Chain>


> <UniProt (TrEMBL) Entry Name of Target Chain>


> <UniProt (TrEMBL) Primary ID of Target Chain>


> <UniProt (TrEMBL) Secondary ID(s) of Target Chain>


> <UniProt (TrEMBL) Alternative ID(s) of Target Chain>


$$$$
3
  Mrv0541 11181423542D          

 13 13  0  0  0  0            999 V2000
   -0.4062    2.6375    0.0000 C   0  0  0  0  0  0  0  0  0  0  0  0
   -1.1207    2.2250    0.0000 C   0  0  0  0  0  0  0  0  0  0  0  0
   -1.1207    1.4000    0.0000 C   0  0  0  0  0  0  0  0  0  0  0  0
   -0.4062    0.9875    0.0000 C   0  0  0  0  0  0  0  0  0  0  0  0
    0.3082    1.4000    0.0000 C   0  0  0  0  0  0  0  0  0  0  0  0
    0.3082    2.2250    0.0000 C   0  0  0  0  0  0  0  0  0  0  0  0
    1.0227    2.6375    0.0000 B   0  0  0  0  0  0  0  0  0  0  0  0
    1.0227    3.4625    0.0000 O   0  0  0  0  0  0  0  0  0  0  0  0
    1.7372    2.2250    0.0000 O   0  0  0  0  0  0  0  0  0  0  0  0
   -1.8352    2.6375    0.0000 C   0  0  0  0  0  0  0  0  0  0  0  0
   -1.8352    3.4625    0.0000 F   0  0  0  0  0  0  0  0  0  0  0  0
   -2.5497    3.0500    0.0000 F   0  0  0  0  0  0  0  0  0  0  0  0
   -2.5497    2.2250    0.0000 F   0  0  0  0  0  0  0  0  0  0  0  0
  1  2  2  0  0  0  0
  1  6  1  0  0  0  0
  2  3  1  0  0  0  0
  3  4  2  0  0  0  0
  4  5  1  0  0  0  0
  5  6  2  0  0  0  0
  6  7  1  0  0  0  0
  7  8  1  0  0  0  0
  7  9  1  0  0  0  0
  2 10  1  0  0  0  0
 10 13  1  0  0  0  0
 10 11  1  0  0  0  0
 10 12  1  0  0  0  0
M  END
> <From>
www.bindingDB.org

> <BindingDB Reactant_set_id>
50054795

> <Ligand InChI>
InChI=1S/C7H6BF3O2/c9-7(10,11)5-2-1-3-6(4-5)8(12)13/h1-4,12-13H

> <Ligand InChI Key>
WOAORAPRPVIATR-UHFFFAOYSA-N

> <BindingDB MonomerID>
26124

> <BindingDB Ligand Name>
CHEMBL336239::Phenylboronic Acid, 3::[3-(trifluoromethyl)phenyl]boranediol

> <Target Name>
Beta-lactamase

> <Target Source Organism According to Curator or DataSource>
Escherichia coli

> <Ki (nM)>
 1100

> <IC50 (nM)>


> <Kd (nM)>


> <EC50 (nM)>


> <kon (M-1-s-1)>


> <koff (s-1)>


> <pH>


> <Temp C>


> <Curation/DataSource>
ChEMBL

> <Article DOI>
10.1021/jm980343w

> <BindingDB Entry DOI>
10.7270/Q22N51FX

> <PMID>
9804697

> <PubChem AID>


> <Patent Number>


> <Authors>
Weston, GS; Blazquez, J; Baquero, F; Shoichet, BK

> <Institution>
Northwestern University Medical School

> <Link to Ligand in BindingDB>
http://www.bindingdb.org/bind/chemsearch/marvin/MolStructure.jsp?monomerid=26124

> <Link to Ligand-Target Pair in BindingDB>
http://www.bindingdb.org/jsp/dbsearch/PrimarySearch_ki.jsp?energyterm=kJ/mole&tag=pol&polymerid=4401&target=Beta-lactamase&column=ki&startPg=0&Increment=50&submit=Search

> <Link to Ligand-Target Pair in BindingDB>
http://www.bindingdb.org/jsp/dbsearch/PrimarySearch_ki.jsp?energyterm=kJ/mole&tag=r21&monomerid=26124&enzyme=Beta-lactamase&column=ki&startPg=0&Increment=50&submit=Search

> <Ligand HET ID in PDB>


> <PDB ID(s) for Ligand-Target Complex>


> <PubChem CID of Ligand>
2734388

> <PubChem SID of Ligand>
56464561

> <ChEBI ID of Ligand>


> <ChEMBL ID of Ligand>
CHEMBL336239

> <DrugBank ID of Ligand>


> <IUPHAR_GRAC ID of Ligand>


> <KEGG ID of Ligand>


> <ZINC ID of Ligand>


> <Number of Protein Chains in Target (bigger than 1 implies a multichain complex)>
1

> <BindingDB Target Chain Sequence>
MFKTTLCALLITASCSTFAAPQQINDIVHRTITPLIEQQKIPGMAVAVIYQGKPYYFTWGYADIAKKQPVTQQTLFELGSVSKTFTGVLGGDAIARGEIKLSDPTTKYWPELTAKQWNGITLLHLATYTAGGLPLQVPDEVKSSSDLLRFYQNWQPAWAPGTQRLYANSSIGLFGALAVKPSGLSFEQAMQTRVFQPLKLNHTWINVPPAEEKNYAWGYREGKAVHVSPGALDAEAYGVKSTIEDMARWVQSNLKPLDINEKTLQQGIQLAQSRYWQTGDMYQGLGWEMLDWPVNPDSIINGSDNKIALAARPVKAITPPTPAVRASWVHKTGATGGFGSYVAFIPEKELGIVMLANKNYPNPARVDAAWQILNALQ

> <PDB ID(s) of Target Chain>
1C3B,1FCO,1FSW,1FSY,1GA9,1IEL,1IEM,1KDS,1KDW,1KE0,1KE3,1KE4,1KVM,1L2S,1LL5,1LL9,1LLB,1MXO,1MY8,1XGI,1XGJ,2BLS,2HDQ,2HDR,2HDS,2HDU,2I72,2P9V,2PU2,2PU4,2R9W,2R9X,2RCX,3BLS,3BM6,3GQZ,3GR2,3GRJ,3GSG,3GTC,3GV9,3GVB,3O86,3O87,3O88,4E3I,4E3J,4E3K,4E3L,4E3M,4E3N,4E3O,4JXG,4JXS,4JXV,4JXW,4KG2,4KZ3,4KZ4,4KZ5,4KZ6,4KZ7,4KZ8,4KZ9,4KZA,4KZB,4LV0,4LV1,4LV2,4LV3,4OKP,4OLD,4OLG,6DPT,6DPX,6DPY,6DPZ,6T35,6T3D,6T5Y,6T7L,6TBW,6TPM,6WGQ,6YEN,6YEO,6YPD

> <UniProt (SwissProt) Recommended Name of Target Chain>
Beta-lactamase

> <UniProt (SwissProt) Entry Name of Target Chain>
AMPC_ECOLI

> <UniProt (SwissProt) Primary ID of Target Chain>
P00811

> <UniProt (SwissProt) Secondary ID(s) of Target Chain>
Q2M6F2

> <UniProt (SwissProt) Alternative ID(s) of Target Chain>


> <UniProt (TrEMBL) Submitted Name of Target Chain>


> <UniProt (TrEMBL) Entry Name of Target Chain>


> <UniProt (TrEMBL) Primary ID of Target Chain>


> <UniProt (TrEMBL) Secondary ID(s) of Target Chain>


> <UniProt (TrEMBL) Alternative ID(s) of Target Chain>


$$$$

  Mrv0541 11191401012D          

 20 21  0  0  0  0            999 V2000
   -0.7396    1.4778    0.0000 C   0  0  0  0  0  0  0  0  0  0  0  0
   -1.5646    1.4778    0.0000 C   0  0  0  0  0  0  0  0  0  0  0  0
   -1.9771    2.1922    0.0000 C   0  0  0  0  0  0  0  0  0  0  0  0
   -1.5646    2.9067    0.0000 C   0  0  0  0  0  0  0  0  0  0  0  0
   -0.7396    2.9067    0.0000 C   0  0  0  0  0  0  0  0  0  0  0  0
   -0.3271    2.1922    0.0000 C   0  0  0  0  0  0  0  0  0  0  0  0
   -1.9771    3.6212    0.0000 B   0  0  0  0  0  0  0  0  0  0  0  0
   -2.8021    3.6212    0.0000 O   0  0  0  0  0  0  0  0  0  0  0  0
   -1.5646    4.3356    0.0000 O   0  0  0  0  0  0  0  0  0  0  0  0
    0.4979    2.1922    0.0000 N   0  0  0  0  0  0  0  0  0  0  0  0
    0.9104    1.4778    0.0000 S   0  0  0  0  0  0  0  0  0  0  0  0
    0.4979    0.7633    0.0000 O   0  0  0  0  0  0  0  0  0  0  0  0
    1.7354    1.4778    0.0000 C   0  0  0  0  0  0  0  0  0  0  0  0
    1.3229    2.1923    0.0000 O   0  0  0  0  0  0  0  0  0  0  0  0
    2.9729    2.1923    0.0000 C   0  0  0  0  0  0  0  0  0  0  0  0
    2.1479    2.1923    0.0000 C   0  0  0  0  0  0  0  0  0  0  0  0
    2.1479    0.7633    0.0000 C   0  0  0  0  0  0  0  0  0  0  0  0
    2.9729    0.7634    0.0000 C   0  0  0  0  0  0  0  0  0  0  0  0
    3.3854    1.4778    0.0000 C   0  0  0  0  0  0  0  0  0  0  0  0
    3.3854    0.0489    0.0000 N   0  0  0  0  0  0  0  0  0  0  0  0
  1  2  2  0  0  0  0
  2  3  1  0  0  0  0
  3  4  2  0  0  0  0
  4  5  1  0  0  0  0
  5  6  2  0  0  0  0
  1  6  1  0  0  0  0
  4  7  1  0  0  0  0
  7  8  1  0  0  0  0
  7  9  1  0  0  0  0
  6 10  1  0  0  0  0
 10 11  1  0  0  0  0
 11 12  2  0  0  0  0
 11 13  1  0  0  0  0
 11 14  2  0  0  0  0
 16 13  2  0  0  0  0
 13 17  1  0  0  0  0
 15 16  1  0  0  0  0
 17 18  2  0  0  0  0
 18 19  1  0  0  0  0
 15 19  2  0  0  0  0
 18 20  1  0  0  0  0
M  END
> <From>
www.bindingDB.org

> <BindingDB Reactant_set_id>
74841

> <Ligand InChI>
InChI=1S/C12H13BN2O4S/c14-10-4-2-6-12(8-10)20(18,19)15-11-5-1-3-9(7-11)13(16)17/h1-8,15-17H,14H2

> <Ligand InChI Key>
KXGRDDXPOKTFPZ-UHFFFAOYSA-N

> <BindingDB MonomerID>
39855

> <BindingDB Ligand Name>
Amide and sulfonamide derivatives, 39

> <Target Name>
Beta-lactamase

> <Target Source Organism According to Curator or DataSource>
Escherichia coli

> <Ki (nM)>
 1.2e+3

> <IC50 (nM)>


> <Kd (nM)>


> <EC50 (nM)>


> <kon (M-1-s-1)>


> <koff (s-1)>


> <pH>
7

> <Temp C>


> <Curation/DataSource>
Curated from the literature by BindingDB

> <Article DOI>
10.1016/S1074-5521(01)00034-5

> <BindingDB Entry DOI>
10.7270/Q27M06BZ

> <PMID>
11410378

> <PubChem AID>
aid1799472

> <Patent Number>


> <Authors>
Tondi, D; Powers, RA; Caselli, E; Negri, MC; Bl&aacute;zquez, J; Costi, MP; Shoichet, BK

> <Institution>
Northwestern University

> <Link to Ligand in BindingDB>
http://www.bindingdb.org/bind/chemsearch/marvin/MolStructure.jsp?monomerid=39855

> <Link to Ligand-Target Pair in BindingDB>
http://www.bindingdb.org/jsp/dbsearch/PrimarySearch_ki.jsp?energyterm=kJ/mole&tag=pol&polymerid=4401&target=Beta-lactamase&column=ki&startPg=0&Increment=50&submit=Search

> <Link to Ligand-Target Pair in BindingDB>
http://www.bindingdb.org/jsp/dbsearch/PrimarySearch_ki.jsp?energyterm=kJ/mole&tag=r21&monomerid=39855&enzyme=Beta-lactamase&column=ki&startPg=0&Increment=50&submit=Search

> <Ligand HET ID in PDB>


> <PDB ID(s) for Ligand-Target Complex>


> <PubChem CID of Ligand>
52940011

> <PubChem SID of Ligand>
123080163

> <ChEBI ID of Ligand>


> <ChEMBL ID of Ligand>


> <DrugBank ID of Ligand>


> <IUPHAR_GRAC ID of Ligand>


> <KEGG ID of Ligand>


> <ZINC ID of Ligand>


> <Number of Protein Chains in Target (bigger than 1 implies a multichain complex)>
1

> <BindingDB Target Chain Sequence>
MFKTTLCALLITASCSTFAAPQQINDIVHRTITPLIEQQKIPGMAVAVIYQGKPYYFTWGYADIAKKQPVTQQTLFELGSVSKTFTGVLGGDAIARGEIKLSDPTTKYWPELTAKQWNGITLLHLATYTAGGLPLQVPDEVKSSSDLLRFYQNWQPAWAPGTQRLYANSSIGLFGALAVKPSGLSFEQAMQTRVFQPLKLNHTWINVPPAEEKNYAWGYREGKAVHVSPGALDAEAYGVKSTIEDMARWVQSNLKPLDINEKTLQQGIQLAQSRYWQTGDMYQGLGWEMLDWPVNPDSIINGSDNKIALAARPVKAITPPTPAVRASWVHKTGATGGFGSYVAFIPEKELGIVMLANKNYPNPARVDAAWQILNALQ

> <PDB ID(s) of Target Chain>
1C3B,1FCO,1FSW,1FSY,1GA9,1IEL,1IEM,1KDS,1KDW,1KE0,1KE3,1KE4,1KVM,1L2S,1LL5,1LL9,1LLB,1MXO,1MY8,1XGI,1XGJ,2BLS,2HDQ,2HDR,2HDS,2HDU,2I72,2P9V,2PU2,2PU4,2R9W,2R9X,2RCX,3BLS,3BM6,3GQZ,3GR2,3GRJ,3GSG,3GTC,3GV9,3GVB,3O86,3O87,3O88,4E3I,4E3J,4E3K,4E3L,4E3M,4E3N,4E3O,4JXG,4JXS,4JXV,4JXW,4KG2,4KZ3,4KZ4,4KZ5,4KZ6,4KZ7,4KZ8,4KZ9,4KZA,4KZB,4LV0,4LV1,4LV2,4LV3,4OKP,4OLD,4OLG,6DPT,6DPX,6DPY,6DPZ,6T35,6T3D,6T5Y,6T7L,6TBW,6TPM,6WGQ,6YEN,6YEO,6YPD

> <UniProt (SwissProt) Recommended Name of Target Chain>
Beta-lactamase

> <UniProt (SwissProt) Entry Name of Target Chain>
AMPC_ECOLI

> <UniProt (SwissProt) Primary ID of Target Chain>
P00811

> <UniProt (SwissProt) Secondary ID(s) of Target Chain>
Q2M6F2

> <UniProt (SwissProt) Alternative ID(s) of Target Chain>


> <UniProt (TrEMBL) Submitted Name of Target Chain>


> <UniProt (TrEMBL) Entry Name of Target Chain>


> <UniProt (TrEMBL) Primary ID of Target Chain>


> <UniProt (TrEMBL) Secondary ID(s) of Target Chain>


> <UniProt (TrEMBL) Alternative ID(s) of Target Chain>


$$$$

  SciTegic04181614082D

 28 31  0  0  0  0            999 V2000
   10.9102   -3.2484    0.0000 N   0  0
    9.4889   -3.7281    0.0000 N   0  0
    8.6154   -2.5245    0.0000 C   0  0
    9.4614   -1.3012    0.0000 N   0  0
   10.8931   -1.7485    0.0000 C   0  0
    7.1146   -2.5384    0.0000 S   0  0
    6.3513   -1.2462    0.0000 C   0  0
    4.8506   -1.2602    0.0000 C   0  0
    4.0872    0.0320    0.0000 N   0  0
    4.2606   -2.3052    0.0000 O   0  0
    2.5889    0.0182    0.0000 C   0  0
   12.0971   -0.8527    0.0000 C   0  0
   12.0353    0.6411    0.0000 C   0  0
   13.3027    1.4434    0.0000 C   0  0
   14.6312    0.7470    0.0000 C   0  0
   14.6924   -0.7518    0.0000 C   0  0
   13.4250   -1.5541    0.0000 C   0  0
   10.7066    1.3391    0.0000 C   0  0
    9.6924    0.6978    0.0000 O   0  0
   10.6580    2.5381    0.0000 O   0  0
    1.7138    1.2033    0.0000 N   0  0
    1.7138   -1.2033    0.0000 S   0  0
    0.2917   -0.7475    0.0000 C   0  0
    0.2917    0.7475    0.0000 C   0  0
   -1.0028    1.5132    0.0000 C   0  0
   -2.3155    0.7475    0.0000 C   0  0
   -2.3155   -0.7475    0.0000 C   0  0
   -1.0028   -1.5132    0.0000 C   0  0
  1  2  1  0
  2  3  2  0
  3  4  1  0
  4  5  1  0
  5  1  2  0
  3  6  1  0
  6  7  1  0
  7  8  1  0
  8  9  1  0
  8 10  2  0
  9 11  1  0
 12 13  2  0
 13 14  1  0
 14 15  2  0
 15 16  1  0
 16 17  2  0
 17 12  1  0
  5 12  1  0
 18 19  1  0
 18 20  2  0
 13 18  1  0
 11 21  2  0
 21 24  1  0
 23 22  1  0
 22 11  1  0
 23 24  2  0
 24 25  1  0
 25 26  2  0
 26 27  1  0
 27 28  2  0
 28 23  1  0
M  END
> <From>
www.bindingDB.org

> <BindingDB Reactant_set_id>
50342713

> <Ligand InChI>
InChI=1S/C18H13N5O3S2/c24-14(20-17-19-12-7-3-4-8-13(12)28-17)9-27-18-21-15(22-23-18)10-5-1-2-6-11(10)16(25)26/h1-8H,9H2,(H,25,26)(H,19,20,24)(H,21,22,23)

> <Ligand InChI Key>
XDAKTDQGVCHONK-UHFFFAOYSA-N

> <BindingDB MonomerID>
50089390

> <BindingDB Ligand Name>
CHEMBL3577963

> <Target Name>
Beta-lactamase

> <Target Source Organism According to Curator or DataSource>


> <Ki (nM)>
 1200

> <IC50 (nM)>


> <Kd (nM)>


> <EC50 (nM)>


> <kon (M-1-s-1)>


> <koff (s-1)>


> <pH>


> <Temp C>


> <Curation/DataSource>
ChEMBL

> <Article DOI>
10.1021/ml500534c

> <BindingDB Entry DOI>
10.7270/Q2XP76P0

> <PMID>
25893049

> <PubChem AID>


> <Patent Number>


> <Authors>
Yang, SK; Kang, JS; Oelschlaeger, P; Yang, KW

> <Institution>
North-West University

> <Link to Ligand in BindingDB>
http://www.bindingdb.org/bind/chemsearch/marvin/MolStructure.jsp?monomerid=50089390

> <Link to Ligand-Target Pair in BindingDB>
http://www.bindingdb.org/jsp/dbsearch/PrimarySearch_ki.jsp?energyterm=kJ/mole&tag=pol&polymerid=50006888&target=Beta-lactamase&column=ki&startPg=0&Increment=50&submit=Search

> <Link to Ligand-Target Pair in BindingDB>
http://www.bindingdb.org/jsp/dbsearch/PrimarySearch_ki.jsp?energyterm=kJ/mole&tag=r21&monomerid=50089390&enzyme=Beta-lactamase&column=ki&startPg=0&Increment=50&submit=Search

> <Ligand HET ID in PDB>
752

> <PDB ID(s) for Ligand-Target Complex>
5LSC

> <PubChem CID of Ligand>
122178133

> <PubChem SID of Ligand>
103988179

> <ChEBI ID of Ligand>


> <ChEMBL ID of Ligand>
CHEMBL3577963

> <DrugBank ID of Ligand>


> <IUPHAR_GRAC ID of Ligand>


> <KEGG ID of Ligand>


> <ZINC ID of Ligand>
ZINC26492447

> <Number of Protein Chains in Target (bigger than 1 implies a multichain complex)>
1

> <BindingDB Target Chain Sequence>
MMKGWIKCGLAGAVVLMASFWGGSVRAAGMSLTQQVSGPVYVVEDNYYVQENSMVYFGAKGVTVVGATWTPDTARELHKLIKRVSRKPVLEVINTNYHTDRAGGNAYWKSIGAKVISTRQTRDLMKSDWAEIVAFTRKGLPEYPDLPLVLPNVVHEGDFTLQEGKLRAFYLGPAHSPDGIFVYFPDQQVLYGNCILKEKLGNLSFADVKAYPQTLERLKAMKLPIKTVVGGHDSPLHGPELIDHYEALIKAASQS

> <PDB ID(s) of Target Chain>


> <UniProt (SwissProt) Recommended Name of Target Chain>


> <UniProt (SwissProt) Entry Name of Target Chain>


> <UniProt (SwissProt) Primary ID of Target Chain>


> <UniProt (SwissProt) Secondary ID(s) of Target Chain>


> <UniProt (SwissProt) Alternative ID(s) of Target Chain>


> <UniProt (TrEMBL) Submitted Name of Target Chain>
Beta-lactamase

> <UniProt (TrEMBL) Entry Name of Target Chain>
O31272_AERVE

> <UniProt (TrEMBL) Primary ID of Target Chain>
O31272

> <UniProt (TrEMBL) Secondary ID(s) of Target Chain>


> <UniProt (TrEMBL) Alternative ID(s) of Target Chain>


$$$$

  Mrv0541 11191401012D          

 23 25  0  0  0  0            999 V2000
    0.9290   -0.3905    0.0000 C   0  0  0  0  0  0  0  0  0  0  0  0
    0.2146   -0.8030    0.0000 C   0  0  0  0  0  0  0  0  0  0  0  0
   -0.4999   -0.3905    0.0000 C   0  0  0  0  0  0  0  0  0  0  0  0
   -0.4999    0.4345    0.0000 C   0  0  0  0  0  0  0  0  0  0  0  0
    0.2146    0.8470    0.0000 C   0  0  0  0  0  0  0  0  0  0  0  0
    0.9290    0.4345    0.0000 C   0  0  0  0  0  0  0  0  0  0  0  0
   -1.2144    0.8470    0.0000 B   0  0  0  0  0  0  0  0  0  0  0  0
   -1.9288    0.4345    0.0000 O   0  0  0  0  0  0  0  0  0  0  0  0
   -1.2144    1.6720    0.0000 O   0  0  0  0  0  0  0  0  0  0  0  0
    1.6435    0.8470    0.0000 N   0  0  0  0  0  0  0  0  0  0  0  0
    1.6435    1.6720    0.0000 S   0  0  0  0  0  0  0  0  0  0  0  0
    1.6435    2.4970    0.0000 C   0  0  0  0  0  0  0  0  0  0  0  0
    0.8185    1.6720    0.0000 O   0  0  0  0  0  0  0  0  0  0  0  0
    2.4685    1.6720    0.0000 O   0  0  0  0  0  0  0  0  0  0  0  0
    1.6435    4.1471    0.0000 C   0  0  0  0  0  0  0  0  0  0  0  0
    0.9290    3.7346    0.0000 C   0  0  0  0  0  0  0  0  0  0  0  0
    0.9290    2.9095    0.0000 C   0  0  0  0  0  0  0  0  0  0  0  0
    2.3580    2.9095    0.0000 C   0  0  0  0  0  0  0  0  0  0  0  0
    2.3580    3.7346    0.0000 C   0  0  0  0  0  0  0  0  0  0  0  0
    3.0724    4.1471    0.0000 C   0  0  0  0  0  0  0  0  0  0  0  0
    3.0724    2.4970    0.0000 C   0  0  0  0  0  0  0  0  0  0  0  0
    3.7869    2.9095    0.0000 C   0  0  0  0  0  0  0  0  0  0  0  0
    3.7869    3.7346    0.0000 C   0  0  0  0  0  0  0  0  0  0  0  0
  1  2  2  0  0  0  0
  2  3  1  0  0  0  0
  3  4  2  0  0  0  0
  4  5  1  0  0  0  0
  5  6  2  0  0  0  0
  1  6  1  0  0  0  0
  4  7  1  0  0  0  0
  7  8  1  0  0  0  0
  7  9  1  0  0  0  0
  6 10  1  0  0  0  0
 10 11  1  0  0  0  0
 11 12  1  0  0  0  0
 11 13  2  0  0  0  0
 11 14  2  0  0  0  0
 17 12  1  0  0  0  0
 12 18  2  0  0  0  0
 15 16  1  0  0  0  0
 16 17  2  0  0  0  0
 15 19  2  0  0  0  0
 20 19  1  0  0  0  0
 18 19  1  0  0  0  0
 18 21  1  0  0  0  0
 21 22  2  0  0  0  0
 22 23  1  0  0  0  0
 20 23  2  0  0  0  0
M  END
> <From>
www.bindingDB.org

> <BindingDB Reactant_set_id>
74811

> <Ligand InChI>
InChI=1S/C16H14BNO4S/c19-17(20)13-7-4-8-14(11-13)18-23(21,22)16-10-3-6-12-5-1-2-9-15(12)16/h1-11,18-20H

> <Ligand InChI Key>
YEOVKPWZQCUKSD-UHFFFAOYSA-N

> <BindingDB MonomerID>
39825

> <BindingDB Ligand Name>
Amide and sulfonamide derivatives, 9

> <Target Name>
Beta-lactamase

> <Target Source Organism According to Curator or DataSource>
Escherichia coli

> <Ki (nM)>
 1.30e+3

> <IC50 (nM)>


> <Kd (nM)>


> <EC50 (nM)>


> <kon (M-1-s-1)>


> <koff (s-1)>


> <pH>
7

> <Temp C>


> <Curation/DataSource>
Curated from the literature by BindingDB

> <Article DOI>
10.1016/S1074-5521(01)00034-5

> <BindingDB Entry DOI>
10.7270/Q27M06BZ

> <PMID>
11410378

> <PubChem AID>
aid1799472

> <Patent Number>


> <Authors>
Tondi, D; Powers, RA; Caselli, E; Negri, MC; Bl&aacute;zquez, J; Costi, MP; Shoichet, BK

> <Institution>
Northwestern University

> <Link to Ligand in BindingDB>
http://www.bindingdb.org/bind/chemsearch/marvin/MolStructure.jsp?monomerid=39825

> <Link to Ligand-Target Pair in BindingDB>
http://www.bindingdb.org/jsp/dbsearch/PrimarySearch_ki.jsp?energyterm=kJ/mole&tag=pol&polymerid=4401&target=Beta-lactamase&column=ki&startPg=0&Increment=50&submit=Search

> <Link to Ligand-Target Pair in BindingDB>
http://www.bindingdb.org/jsp/dbsearch/PrimarySearch_ki.jsp?energyterm=kJ/mole&tag=r21&monomerid=39825&enzyme=Beta-lactamase&column=ki&startPg=0&Increment=50&submit=Search

> <Ligand HET ID in PDB>


> <PDB ID(s) for Ligand-Target Complex>


> <PubChem CID of Ligand>
52939996

> <PubChem SID of Ligand>
123080133

> <ChEBI ID of Ligand>


> <ChEMBL ID of Ligand>


> <DrugBank ID of Ligand>


> <IUPHAR_GRAC ID of Ligand>


> <KEGG ID of Ligand>


> <ZINC ID of Ligand>


> <Number of Protein Chains in Target (bigger than 1 implies a multichain complex)>
1

> <BindingDB Target Chain Sequence>
MFKTTLCALLITASCSTFAAPQQINDIVHRTITPLIEQQKIPGMAVAVIYQGKPYYFTWGYADIAKKQPVTQQTLFELGSVSKTFTGVLGGDAIARGEIKLSDPTTKYWPELTAKQWNGITLLHLATYTAGGLPLQVPDEVKSSSDLLRFYQNWQPAWAPGTQRLYANSSIGLFGALAVKPSGLSFEQAMQTRVFQPLKLNHTWINVPPAEEKNYAWGYREGKAVHVSPGALDAEAYGVKSTIEDMARWVQSNLKPLDINEKTLQQGIQLAQSRYWQTGDMYQGLGWEMLDWPVNPDSIINGSDNKIALAARPVKAITPPTPAVRASWVHKTGATGGFGSYVAFIPEKELGIVMLANKNYPNPARVDAAWQILNALQ

> <PDB ID(s) of Target Chain>
1C3B,1FCO,1FSW,1FSY,1GA9,1IEL,1IEM,1KDS,1KDW,1KE0,1KE3,1KE4,1KVM,1L2S,1LL5,1LL9,1LLB,1MXO,1MY8,1XGI,1XGJ,2BLS,2HDQ,2HDR,2HDS,2HDU,2I72,2P9V,2PU2,2PU4,2R9W,2R9X,2RCX,3BLS,3BM6,3GQZ,3GR2,3GRJ,3GSG,3GTC,3GV9,3GVB,3O86,3O87,3O88,4E3I,4E3J,4E3K,4E3L,4E3M,4E3N,4E3O,4JXG,4JXS,4JXV,4JXW,4KG2,4KZ3,4KZ4,4KZ5,4KZ6,4KZ7,4KZ8,4KZ9,4KZA,4KZB,4LV0,4LV1,4LV2,4LV3,4OKP,4OLD,4OLG,6DPT,6DPX,6DPY,6DPZ,6T35,6T3D,6T5Y,6T7L,6TBW,6TPM,6WGQ,6YEN,6YEO,6YPD

> <UniProt (SwissProt) Recommended Name of Target Chain>
Beta-lactamase

> <UniProt (SwissProt) Entry Name of Target Chain>
AMPC_ECOLI

> <UniProt (SwissProt) Primary ID of Target Chain>
P00811

> <UniProt (SwissProt) Secondary ID(s) of Target Chain>
Q2M6F2

> <UniProt (SwissProt) Alternative ID(s) of Target Chain>


> <UniProt (TrEMBL) Submitted Name of Target Chain>


> <UniProt (TrEMBL) Entry Name of Target Chain>


> <UniProt (TrEMBL) Primary ID of Target Chain>


> <UniProt (TrEMBL) Secondary ID(s) of Target Chain>


> <UniProt (TrEMBL) Alternative ID(s) of Target Chain>


$$$$

  Mrv0541 11231401522D          

 26 28  0  0  0  0            999 V2000
    4.1887   -5.2615    0.0000 S   0  0  0  0  0  0  0  0  0  0  0  0
    5.0139   -5.2615    0.0000 C   0  0  0  0  0  0  0  0  0  0  0  0
    3.3602   -5.2615    0.0000 N   0  0  0  0  0  0  0  0  0  0  0  0
    5.4265   -5.9810    0.0000 C   0  0  0  0  0  0  0  0  0  0  0  0
    6.2484   -5.9810    0.0000 C   0  0  0  0  0  0  0  0  0  0  0  0
    6.6577   -6.6874    0.0000 C   0  0  0  0  0  0  0  0  0  0  0  0
    0.8813   -3.8256    0.0000 B   0  0  0  0  0  0  0  0  0  0  0  0
    4.5980   -4.5485    0.0000 O   0  0  0  0  0  0  0  0  0  0  0  0
    4.5980   -5.9744    0.0000 O   0  0  0  0  0  0  0  0  0  0  0  0
    1.7065   -3.8322    0.0000 C   0  0  0  0  0  0  0  0  0  0  0  0
    2.1191   -4.5485    0.0000 C   0  0  0  0  0  0  0  0  0  0  0  0
    7.4796   -6.6841    0.0000 N   0  0  0  0  0  0  0  0  0  0  0  0
    2.9509   -4.5485    0.0000 C   0  0  0  0  0  0  0  0  0  0  0  0
    0.4687   -3.1093    0.0000 O   0  0  0  0  0  0  0  0  0  0  0  0
    0.4588   -4.5386    0.0000 O   0  0  0  0  0  0  0  0  0  0  0  0
    5.4199   -4.5485    0.0000 C   0  0  0  0  0  0  0  0  0  0  0  0
    6.6577   -5.2615    0.0000 C   0  0  0  0  0  0  0  0  0  0  0  0
    5.0139   -6.6874    0.0000 C   0  0  0  0  0  0  0  0  0  0  0  0
    6.2517   -7.3970    0.0000 C   0  0  0  0  0  0  0  0  0  0  0  0
    2.1191   -3.1192    0.0000 C   0  0  0  0  0  0  0  0  0  0  0  0
    5.4265   -7.4004    0.0000 C   0  0  0  0  0  0  0  0  0  0  0  0
    6.2418   -4.5485    0.0000 C   0  0  0  0  0  0  0  0  0  0  0  0
    2.9443   -3.1192    0.0000 C   0  0  0  0  0  0  0  0  0  0  0  0
    3.3602   -3.8322    0.0000 C   0  0  0  0  0  0  0  0  0  0  0  0
    7.8955   -7.3970    0.0000 C   0  0  0  0  0  0  0  0  0  0  0  0
    7.8922   -5.9645    0.0000 C   0  0  0  0  0  0  0  0  0  0  0  0
  2  1  1  0  0  0  0
  3  1  1  0  0  0  0
  4  2  2  0  0  0  0
  5  4  1  0  0  0  0
  6  5  1  0  0  0  0
  7 10  1  0  0  0  0
  8  1  2  0  0  0  0
  9  1  2  0  0  0  0
 10 11  2  0  0  0  0
 11 13  1  0  0  0  0
 12  6  1  0  0  0  0
 13  3  1  0  0  0  0
 14  7  1  0  0  0  0
 15  7  1  0  0  0  0
 16  2  1  0  0  0  0
 17 22  1  0  0  0  0
 18  4  1  0  0  0  0
 19 21  1  0  0  0  0
 20 23  2  0  0  0  0
 21 18  2  0  0  0  0
 22 16  2  0  0  0  0
 23 24  1  0  0  0  0
 24 13  2  0  0  0  0
 25 12  1  0  0  0  0
 26 12  1  0  0  0  0
 17  5  2  0  0  0  0
 20 10  1  0  0  0  0
  6 19  2  0  0  0  0
M  END
> <From>
www.bindingDB.org

> <BindingDB Reactant_set_id>
50054791

> <Ligand InChI>
InChI=1S/C18H19BN2O4S/c1-21(2)17-10-4-9-16-15(17)8-5-11-18(16)26(24,25)20-14-7-3-6-13(12-14)19(22)23/h3-12,20,22-23H,1-2H3

> <Ligand InChI Key>
TYXMKSYBCDTGDU-UHFFFAOYSA-N

> <BindingDB MonomerID>
50067898

> <BindingDB Ligand Name>
3-(5-(dimethylamino)naphthalene-1-sulfonamido)phenylboronic acid::CHEMBL140740::m(dansylamidophenyl)boronic acid

> <Target Name>
Beta-lactamase

> <Target Source Organism According to Curator or DataSource>
Escherichia coli

> <Ki (nM)>
 1300

> <IC50 (nM)>


> <Kd (nM)>


> <EC50 (nM)>


> <kon (M-1-s-1)>


> <koff (s-1)>


> <pH>


> <Temp C>


> <Curation/DataSource>
ChEMBL

> <Article DOI>
10.1021/jm980343w

> <BindingDB Entry DOI>
10.7270/Q22N51FX

> <PMID>
9804697

> <PubChem AID>


> <Patent Number>


> <Authors>
Weston, GS; Blazquez, J; Baquero, F; Shoichet, BK

> <Institution>
Northwestern University Medical School

> <Link to Ligand in BindingDB>
http://www.bindingdb.org/bind/chemsearch/marvin/MolStructure.jsp?monomerid=50067898

> <Link to Ligand-Target Pair in BindingDB>
http://www.bindingdb.org/jsp/dbsearch/PrimarySearch_ki.jsp?energyterm=kJ/mole&tag=pol&polymerid=4401&target=Beta-lactamase&column=ki&startPg=0&Increment=50&submit=Search

> <Link to Ligand-Target Pair in BindingDB>
http://www.bindingdb.org/jsp/dbsearch/PrimarySearch_ki.jsp?energyterm=kJ/mole&tag=r21&monomerid=50067898&enzyme=Beta-lactamase&column=ki&startPg=0&Increment=50&submit=Search

> <Ligand HET ID in PDB>


> <PDB ID(s) for Ligand-Target Complex>


> <PubChem CID of Ligand>
150643

> <PubChem SID of Ligand>
103962324

> <ChEBI ID of Ligand>


> <ChEMBL ID of Ligand>
CHEMBL140740

> <DrugBank ID of Ligand>


> <IUPHAR_GRAC ID of Ligand>


> <KEGG ID of Ligand>


> <ZINC ID of Ligand>


> <Number of Protein Chains in Target (bigger than 1 implies a multichain complex)>
1

> <BindingDB Target Chain Sequence>
MFKTTLCALLITASCSTFAAPQQINDIVHRTITPLIEQQKIPGMAVAVIYQGKPYYFTWGYADIAKKQPVTQQTLFELGSVSKTFTGVLGGDAIARGEIKLSDPTTKYWPELTAKQWNGITLLHLATYTAGGLPLQVPDEVKSSSDLLRFYQNWQPAWAPGTQRLYANSSIGLFGALAVKPSGLSFEQAMQTRVFQPLKLNHTWINVPPAEEKNYAWGYREGKAVHVSPGALDAEAYGVKSTIEDMARWVQSNLKPLDINEKTLQQGIQLAQSRYWQTGDMYQGLGWEMLDWPVNPDSIINGSDNKIALAARPVKAITPPTPAVRASWVHKTGATGGFGSYVAFIPEKELGIVMLANKNYPNPARVDAAWQILNALQ

> <PDB ID(s) of Target Chain>
1C3B,1FCO,1FSW,1FSY,1GA9,1IEL,1IEM,1KDS,1KDW,1KE0,1KE3,1KE4,1KVM,1L2S,1LL5,1LL9,1LLB,1MXO,1MY8,1XGI,1XGJ,2BLS,2HDQ,2HDR,2HDS,2HDU,2I72,2P9V,2PU2,2PU4,2R9W,2R9X,2RCX,3BLS,3BM6,3GQZ,3GR2,3GRJ,3GSG,3GTC,3GV9,3GVB,3O86,3O87,3O88,4E3I,4E3J,4E3K,4E3L,4E3M,4E3N,4E3O,4JXG,4JXS,4JXV,4JXW,4KG2,4KZ3,4KZ4,4KZ5,4KZ6,4KZ7,4KZ8,4KZ9,4KZA,4KZB,4LV0,4LV1,4LV2,4LV3,4OKP,4OLD,4OLG,6DPT,6DPX,6DPY,6DPZ,6T35,6T3D,6T5Y,6T7L,6TBW,6TPM,6WGQ,6YEN,6YEO,6YPD

> <UniProt (SwissProt) Recommended Name of Target Chain>
Beta-lactamase

> <UniProt (SwissProt) Entry Name of Target Chain>
AMPC_ECOLI

> <UniProt (SwissProt) Primary ID of Target Chain>
P00811

> <UniProt (SwissProt) Secondary ID(s) of Target Chain>
Q2M6F2

> <UniProt (SwissProt) Alternative ID(s) of Target Chain>


> <UniProt (TrEMBL) Submitted Name of Target Chain>


> <UniProt (TrEMBL) Entry Name of Target Chain>


> <UniProt (TrEMBL) Primary ID of Target Chain>


> <UniProt (TrEMBL) Secondary ID(s) of Target Chain>


> <UniProt (TrEMBL) Alternative ID(s) of Target Chain>


$$$$

  Mrv0541 11231414582D          

 19 21  0  0  0  0            999 V2000
   14.6140   -7.2338    0.0000 C   0  0  0  0  0  0  0  0  0  0  0  0
   14.6128   -8.0605    0.0000 C   0  0  0  0  0  0  0  0  0  0  0  0
   15.3268   -8.4730    0.0000 C   0  0  0  0  0  0  0  0  0  0  0  0
   15.3251   -6.8212    0.0000 C   0  0  0  0  0  0  0  0  0  0  0  0
   16.0394   -7.2303    0.0000 C   0  0  0  0  0  0  0  0  0  0  0  0
   16.0395   -8.0559    0.0000 C   0  0  0  0  0  0  0  0  0  0  0  0
   16.8248   -8.3110    0.0000 C   0  0  0  0  0  0  0  0  0  0  0  0
   17.3101   -7.6430    0.0000 O   0  0  0  0  0  0  0  0  0  0  0  0
   16.8246   -6.9752    0.0000 B   0  0  0  0  0  0  0  0  0  0  0  0
   17.0793   -6.1911    0.0000 O   0  0  0  0  0  0  0  0  0  0  0  0
   13.8997   -6.8218    0.0000 O   0  0  0  0  0  0  0  0  0  0  0  0
   13.1859   -7.2342    0.0000 C   0  0  0  0  0  0  0  0  0  0  0  0
   12.4736   -6.8179    0.0000 C   0  0  0  0  0  0  0  0  0  0  0  0
   11.7602   -7.2297    0.0000 C   0  0  0  0  0  0  0  0  0  0  0  0
   11.7600   -8.0551    0.0000 C   0  0  0  0  0  0  0  0  0  0  0  0
   12.4793   -8.4670    0.0000 C   0  0  0  0  0  0  0  0  0  0  0  0
   13.1897   -8.0527    0.0000 C   0  0  0  0  0  0  0  0  0  0  0  0
   11.0462   -6.8175    0.0000 O   0  0  0  0  0  0  0  0  0  0  0  0
   11.0463   -5.9929    0.0000 C   0  0  0  0  0  0  0  0  0  0  0  0
  9  5  1  0  0  0  0
  4  1  2  0  0  0  0
  9 10  1  0  0  0  0
  5  6  2  0  0  0  0
  1 11  1  0  0  0  0
 11 12  1  0  0  0  0
  2  3  2  0  0  0  0
 12 13  2  0  0  0  0
  3  6  1  0  0  0  0
 13 14  1  0  0  0  0
  1  2  1  0  0  0  0
 14 15  2  0  0  0  0
  5  4  1  0  0  0  0
 15 16  1  0  0  0  0
  6  7  1  0  0  0  0
 16 17  2  0  0  0  0
 17 12  1  0  0  0  0
  7  8  1  0  0  0  0
 14 18  1  0  0  0  0
  8  9  1  0  0  0  0
 18 19  1  0  0  0  0
M  END
> <From>
www.bindingDB.org

> <BindingDB Reactant_set_id>
50629867

> <Ligand InChI>
InChI=1S/C14H13BO4/c1-17-11-3-2-4-12(7-11)19-13-6-5-10-9-18-15(16)14(10)8-13/h2-8,16H,9H2,1H3

> <Ligand InChI Key>
IEVGZUPNZCLNKX-UHFFFAOYSA-N

> <BindingDB MonomerID>
50339856

> <BindingDB Ligand Name>
6-(3-methoxyphenoxy)benzo[c][1,2]oxaborol-1(3H)-ol::CHEMBL1761261

> <Target Name>
Beta-lactamase

> <Target Source Organism According to Curator or DataSource>
Enterobacter cloacae

> <Ki (nM)>
 1350

> <IC50 (nM)>


> <Kd (nM)>


> <EC50 (nM)>


> <kon (M-1-s-1)>


> <koff (s-1)>


> <pH>


> <Temp C>


> <Curation/DataSource>
ChEMBL

> <Article DOI>
10.1016/j.bmcl.2011.02.024

> <BindingDB Entry DOI>
10.7270/Q2G44QK5

> <PMID>
21392987

> <PubChem AID>


> <Patent Number>


> <Authors>
Xia, Y; Cao, K; Zhou, Y; Alley, MR; Rock, F; Mohan, M; Meewan, M; Baker, SJ; Lux, S; Ding, CZ; Jia, G; Kully, M; Plattner, JJ

> <Institution>
Anacor Pharmaceuticals Inc

> <Link to Ligand in BindingDB>
http://www.bindingdb.org/bind/chemsearch/marvin/MolStructure.jsp?monomerid=50339856

> <Link to Ligand-Target Pair in BindingDB>
http://www.bindingdb.org/jsp/dbsearch/PrimarySearch_ki.jsp?energyterm=kJ/mole&tag=pol&polymerid=50002394&target=Beta-lactamase&column=ki&startPg=0&Increment=50&submit=Search

> <Link to Ligand-Target Pair in BindingDB>
http://www.bindingdb.org/jsp/dbsearch/PrimarySearch_ki.jsp?energyterm=kJ/mole&tag=r21&monomerid=50339856&enzyme=Beta-lactamase&column=ki&startPg=0&Increment=50&submit=Search

> <Ligand HET ID in PDB>


> <PDB ID(s) for Ligand-Target Complex>


> <PubChem CID of Ligand>
54582255

> <PubChem SID of Ligand>
131342792

> <ChEBI ID of Ligand>


> <ChEMBL ID of Ligand>
CHEMBL1761261

> <DrugBank ID of Ligand>


> <IUPHAR_GRAC ID of Ligand>


> <KEGG ID of Ligand>


> <ZINC ID of Ligand>


> <Number of Protein Chains in Target (bigger than 1 implies a multichain complex)>
1

> <BindingDB Target Chain Sequence>
MMRKSLCCALLLGISCSALATPVSEKQLAEVVANTITPLMKAQSVPGMAVAVIYQGKPHYYTFGKADIAANKPVTPQTLFELGSISKTFTGVLGGDAIARGEISLDDAVTRYWPQLTGKQWQGIRMLDLATYTAGGLPLQVPDEVTDNASLLRFYQNWQPQWKPGTTRLYANASIGLFGALAVKPSGMPYEQAMTTRVLKPLKLDHTWINVPKAEEAHYAWGYRDGKAVRVSPGMLDAQAYGVKTNVQDMANWVMANMAPENVADASLKQGIALAQSRYWRIGSMYQGLGWEMLNWPVEANTVVEGSDSKVALAPLPVAEVNPPAPPVKASWVHKTGSTGGFGSYVAFIPEKQIGIVMLANTSYPNPARVEAAYHILEALQ

> <PDB ID(s) of Target Chain>
1XX2,2Q9M,2Q9N,7TI1

> <UniProt (SwissProt) Recommended Name of Target Chain>
Beta-lactamase

> <UniProt (SwissProt) Entry Name of Target Chain>
AMPC_ENTCL

> <UniProt (SwissProt) Primary ID of Target Chain>
P05364

> <UniProt (SwissProt) Secondary ID(s) of Target Chain>


> <UniProt (SwissProt) Alternative ID(s) of Target Chain>


> <UniProt (TrEMBL) Submitted Name of Target Chain>


> <UniProt (TrEMBL) Entry Name of Target Chain>


> <UniProt (TrEMBL) Primary ID of Target Chain>


> <UniProt (TrEMBL) Secondary ID(s) of Target Chain>


> <UniProt (TrEMBL) Alternative ID(s) of Target Chain>


$$$$

     RDKit          2D

 35 37  0  0  0  0  0  0  0  0999 V2000
    5.7455  -16.7946    0.0000 Na  0  0  0  0  0 15  0  0  0  0  0  0
    3.0211  -14.2967    0.0000 O   0  0  0  0  0  0  0  0  0  0  0  0
    3.4339  -15.0066    0.0000 S   0  0  0  0  0  0  0  0  0  0  0  0
    3.8423  -14.2942    0.0000 O   0  0  0  0  0  0  0  0  0  0  0  0
    4.6762  -14.9034    0.0000 C   0  0  0  0  0  0  0  0  0  0  0  0
    4.0983  -15.4854    0.0000 C   0  0  0  0  0  0  0  0  0  0  0  0
    4.8912  -15.6948    0.0000 C   0  0  0  0  0  0  0  0  0  0  0  0
    3.8465  -16.2654    0.0000 C   0  0  0  0  0  0  0  0  0  0  0  0
    3.0294  -16.2654    0.0000 N   0  0  0  0  0  0  0  0  0  0  0  0
    2.7778  -15.4931    0.0000 C   0  0  0  0  0  0  0  0  0  0  0  0
    2.0054  -15.7447    0.0000 C   0  0  0  0  0  0  0  0  0  0  0  0
    2.2570  -16.5170    0.0000 C   0  0  0  0  0  0  0  0  0  0  0  0
    1.2770  -15.3743    0.0000 C   0  0  0  0  0  0  0  0  0  0  0  0
    1.2336  -14.5582    0.0000 C   0  0  0  0  0  0  0  0  0  0  0  0
    1.9196  -14.1148    0.0000 N   0  0  0  0  0  0  0  0  0  0  0  0
    1.8765  -13.2995    0.0000 C   0  0  0  0  0  0  0  0  0  0  0  0
    1.1476  -12.9283    0.0000 C   0  0  0  0  0  0  0  0  0  0  0  0
    0.4604  -13.3784    0.0000 C   0  0  0  0  0  0  0  0  0  0  0  0
    0.5069  -14.1922    0.0000 C   0  0  0  0  0  0  0  0  0  0  0  0
    1.8866  -17.2454    0.0000 O   0  0  0  0  0  0  0  0  0  0  0  0
    4.3261  -16.9271    0.0000 C   0  0  0  0  0  0  0  0  0  0  0  0
    5.4662  -15.1121    0.0000 O   0  0  0  0  0  0  0  0  0  0  0  0
    6.0420  -14.5322    0.0000 C   0  0  0  0  0  0  0  0  0  0  0  0
    6.8321  -14.7409    0.0000 C   0  0  0  0  0  0  0  0  0  0  0  0
    5.8277  -13.7436    0.0000 O   0  0  0  0  0  0  0  0  0  0  0  0
    7.4079  -14.1610    0.0000 C   0  0  0  0  0  0  0  0  0  0  0  0
    8.1980  -14.3721    0.0000 C   0  0  0  0  0  0  0  0  0  0  0  0
    8.7735  -13.7930    0.0000 C   0  0  0  0  0  0  0  0  0  0  0  0
    8.5593  -13.0034    0.0000 C   0  0  0  0  0  0  0  0  0  0  0  0
    7.7645  -12.7962    0.0000 C   0  0  0  0  0  0  0  0  0  0  0  0
    7.1924  -13.3768    0.0000 C   0  0  0  0  0  0  0  0  0  0  0  0
    9.1343  -12.4227    0.0000 O   0  0  0  0  0  0  0  0  0  0  0  0
    9.5634  -14.0020    0.0000 O   0  0  0  0  0  0  0  0  0  0  0  0
    3.9929  -17.6733    0.0000 O   0  0  0  0  0  0  0  0  0  0  0  0
    5.1389  -16.8426    0.0000 O   0  0  0  0  0  0  0  0  0  0  0  0
  3  2  2  0
  4  3  2  0
  6  5  1  0
  6  7  1  6
  9  8  1  0
  8  6  1  0
  6  3  1  0
  3 10  1  0
 10  9  1  1
 10 11  1  0
 11 12  1  0
 12  9  1  0
 11 13  2  0
 13 14  1  0
 14 15  2  0
 15 16  1  0
 16 17  2  0
 17 18  1  0
 18 19  2  0
 19 14  1  0
 12 20  2  0
  8 21  1  6
  5 22  1  0
 22 23  1  0
 23 24  1  0
 23 25  2  0
 24 26  1  0
 26 27  2  0
 27 28  1  0
 28 29  2  0
 29 30  1  0
 30 31  2  0
 31 26  1  0
 29 32  1  0
 28 33  1  0
 21 34  2  0
 21 35  1  0
M  CHG  2   1   1  35  -1
M  END
> <From>
www.bindingDB.org

> <BindingDB Reactant_set_id>
51183488

> <Ligand InChI>
InChI=1S/C22H20N2O9S.Na/c1-22(11-33-17(27)9-12-5-6-15(25)16(26)8-12)18(21(29)30)24-19(28)14(20(24)34(22,31)32)10-13-4-2-3-7-23-13;/h2-8,10,18,20,25-26H,9,11H2,1H3,(H,29,30);/q;+1/p-1/b14-10-;/t18-,20+,22-;/m0./s1

> <Ligand InChI Key>
OISRDGHGSAOFKW-OIGABSMWSA-M

> <BindingDB MonomerID>
50486725

> <BindingDB Ligand Name>
CHEMBL2236666

> <Target Name>
Beta-lactamase SHV-5

> <Target Source Organism According to Curator or DataSource>
Klebsiella pneumoniae

> <Ki (nM)>
 1360

> <IC50 (nM)>


> <Kd (nM)>


> <EC50 (nM)>


> <kon (M-1-s-1)>


> <koff (s-1)>


> <pH>


> <Temp C>


> <Curation/DataSource>
ChEMBL

> <Article DOI>
10.1007/s00044-011-9736-8

> <BindingDB Entry DOI>
10.7270/Q2NC643K

> <PMID>


> <PubChem AID>


> <Patent Number>


> <Authors>
n/a

> <Institution>
n/a

> <Link to Ligand in BindingDB>
http://www.bindingdb.org/bind/chemsearch/marvin/MolStructure.jsp?monomerid=50486725

> <Link to Ligand-Target Pair in BindingDB>
http://www.bindingdb.org/jsp/dbsearch/PrimarySearch_ki.jsp?energyterm=kJ/mole&tag=pol&polymerid=50004477&target=Beta-lactamase+SHV-5&column=ki&startPg=0&Increment=50&submit=Search

> <Link to Ligand-Target Pair in BindingDB>
http://www.bindingdb.org/jsp/dbsearch/PrimarySearch_ki.jsp?energyterm=kJ/mole&tag=r21&monomerid=50486725&enzyme=Beta-lactamase+SHV-5&column=ki&startPg=0&Increment=50&submit=Search

> <Ligand HET ID in PDB>


> <PDB ID(s) for Ligand-Target Complex>


> <PubChem CID of Ligand>
23672118

> <PubChem SID of Ligand>
433953990

> <ChEBI ID of Ligand>


> <ChEMBL ID of Ligand>


> <DrugBank ID of Ligand>


> <IUPHAR_GRAC ID of Ligand>


> <KEGG ID of Ligand>


> <ZINC ID of Ligand>


> <Number of Protein Chains in Target (bigger than 1 implies a multichain complex)>
1

> <BindingDB Target Chain Sequence>
MRYIRLCIISLLATLPLAVHASPQPLEQIKLSESQLSGRVGMIEMDLASGRTLTAWRADERFPMMSTFKVVLCGAVLARVDAGDEQLERKIHYRQQDLVDYSPVSEKHLADGMTVGELCAAAITMSDNSAANLLLATVGGPAGLTAFLRQIGDNVTRLDRWETELNEALPGDARDTTTPASMAATLRKLLTSQRLSARSQRQLLQWMVDDRVAGPLIRSVLPAGWFIADKTGASKRGARGIVALLGPNNKAERIVVIYLRDTPASMAERNQQIAGIGAALIEHWQR

> <PDB ID(s) of Target Chain>
1RCJ,1TDG,1TDL,2A3U,2A49,2G2W,3N4I,3V50,3V5M,4FCF,4FD8,4FH2,4MBH,4MBK

> <UniProt (SwissProt) Recommended Name of Target Chain>
Beta-lactamase SHV-5

> <UniProt (SwissProt) Entry Name of Target Chain>
BLA5_KLEPN

> <UniProt (SwissProt) Primary ID of Target Chain>
P0A3M1

> <UniProt (SwissProt) Secondary ID(s) of Target Chain>
P37320

> <UniProt (SwissProt) Alternative ID(s) of Target Chain>


> <UniProt (TrEMBL) Submitted Name of Target Chain>


> <UniProt (TrEMBL) Entry Name of Target Chain>


> <UniProt (TrEMBL) Primary ID of Target Chain>


> <UniProt (TrEMBL) Secondary ID(s) of Target Chain>


> <UniProt (TrEMBL) Alternative ID(s) of Target Chain>


$$$$

  SciTegic04181614082D

 26 28  0  0  0  0            999 V2000
    2.7343   -2.9815    0.0000 N   0  0
    4.2010   -3.2956    0.0000 N   0  0
    4.9531   -1.9978    0.0000 C   0  0
    3.9511   -0.8815    0.0000 N   0  0
    2.5987   -1.5004    0.0000 C   0  0
    6.4430   -1.8404    0.0000 S   0  0
    7.0537   -0.4695    0.0000 C   0  0
    8.5462   -0.3118    0.0000 C   0  0
    9.1568    1.0592    0.0000 N   0  0
    9.2517   -1.2825    0.0000 O   0  0
   10.6493    1.2168    0.0000 C   0  0
    1.2990   -0.7500    0.0000 C   0  0
    1.2990    0.7500    0.0000 C   0  0
    0.0000    1.5000    0.0000 C   0  0
   -1.2990    0.7500    0.0000 C   0  0
   -1.2990   -0.7500    0.0000 C   0  0
    0.0000   -1.5000    0.0000 C   0  0
    2.5972    1.5031    0.0000 C   0  0
    3.6375    0.9049    0.0000 O   0  0
    2.5955    2.7031    0.0000 O   0  0
   11.2616    2.5861    0.0000 C   0  0
   12.7537    2.7406    0.0000 C   0  0
   13.6335    1.5258    0.0000 C   0  0
   13.0213    0.1564    0.0000 C   0  0
   11.5292    0.0019    0.0000 C   0  0
   14.8271    1.6493    0.0000 Cl  0  0
  1  2  1  0
  2  3  2  0
  3  4  1  0
  4  5  1  0
  5  1  2  0
  3  6  1  0
  6  7  1  0
  7  8  1  0
  8  9  1  0
  8 10  2  0
  9 11  1  0
 12 13  2  0
 13 14  1  0
 14 15  2  0
 15 16  1  0
 16 17  2  0
 17 12  1  0
  5 12  1  0
 18 19  1  0
 18 20  2  0
 13 18  1  0
 11 21  2  0
 21 22  1  0
 22 23  2  0
 23 24  1  0
 24 25  2  0
 25 11  1  0
 23 26  1  0
M  END
> <From>
www.bindingDB.org

> <BindingDB Reactant_set_id>
50342714

> <Ligand InChI>
InChI=1S/C17H13ClN4O3S/c18-10-5-7-11(8-6-10)19-14(23)9-26-17-20-15(21-22-17)12-3-1-2-4-13(12)16(24)25/h1-8H,9H2,(H,19,23)(H,24,25)(H,20,21,22)

> <Ligand InChI Key>
VGYVSBCYVCCEAQ-UHFFFAOYSA-N

> <BindingDB MonomerID>
50089391

> <BindingDB Ligand Name>
CHEMBL3577964

> <Target Name>
Beta-lactamase

> <Target Source Organism According to Curator or DataSource>


> <Ki (nM)>
 1400

> <IC50 (nM)>


> <Kd (nM)>


> <EC50 (nM)>


> <kon (M-1-s-1)>


> <koff (s-1)>


> <pH>


> <Temp C>


> <Curation/DataSource>
ChEMBL

> <Article DOI>
10.1021/ml500534c

> <BindingDB Entry DOI>
10.7270/Q2XP76P0

> <PMID>
25893049

> <PubChem AID>


> <Patent Number>


> <Authors>
Yang, SK; Kang, JS; Oelschlaeger, P; Yang, KW

> <Institution>
North-West University

> <Link to Ligand in BindingDB>
http://www.bindingdb.org/bind/chemsearch/marvin/MolStructure.jsp?monomerid=50089391

> <Link to Ligand-Target Pair in BindingDB>
http://www.bindingdb.org/jsp/dbsearch/PrimarySearch_ki.jsp?energyterm=kJ/mole&tag=pol&polymerid=50006888&target=Beta-lactamase&column=ki&startPg=0&Increment=50&submit=Search

> <Link to Ligand-Target Pair in BindingDB>
http://www.bindingdb.org/jsp/dbsearch/PrimarySearch_ki.jsp?energyterm=kJ/mole&tag=r21&monomerid=50089391&enzyme=Beta-lactamase&column=ki&startPg=0&Increment=50&submit=Search

> <Ligand HET ID in PDB>


> <PDB ID(s) for Ligand-Target Complex>


> <PubChem CID of Ligand>
122178134

> <PubChem SID of Ligand>
103988180

> <ChEBI ID of Ligand>


> <ChEMBL ID of Ligand>
CHEMBL3577964

> <DrugBank ID of Ligand>


> <IUPHAR_GRAC ID of Ligand>


> <KEGG ID of Ligand>


> <ZINC ID of Ligand>
ZINC36152165

> <Number of Protein Chains in Target (bigger than 1 implies a multichain complex)>
1

> <BindingDB Target Chain Sequence>
MMKGWIKCGLAGAVVLMASFWGGSVRAAGMSLTQQVSGPVYVVEDNYYVQENSMVYFGAKGVTVVGATWTPDTARELHKLIKRVSRKPVLEVINTNYHTDRAGGNAYWKSIGAKVISTRQTRDLMKSDWAEIVAFTRKGLPEYPDLPLVLPNVVHEGDFTLQEGKLRAFYLGPAHSPDGIFVYFPDQQVLYGNCILKEKLGNLSFADVKAYPQTLERLKAMKLPIKTVVGGHDSPLHGPELIDHYEALIKAASQS

> <PDB ID(s) of Target Chain>


> <UniProt (SwissProt) Recommended Name of Target Chain>


> <UniProt (SwissProt) Entry Name of Target Chain>


> <UniProt (SwissProt) Primary ID of Target Chain>


> <UniProt (SwissProt) Secondary ID(s) of Target Chain>


> <UniProt (SwissProt) Alternative ID(s) of Target Chain>


> <UniProt (TrEMBL) Submitted Name of Target Chain>
Beta-lactamase

> <UniProt (TrEMBL) Entry Name of Target Chain>
O31272_AERVE

> <UniProt (TrEMBL) Primary ID of Target Chain>
O31272

> <UniProt (TrEMBL) Secondary ID(s) of Target Chain>


> <UniProt (TrEMBL) Alternative ID(s) of Target Chain>


$$$$

  Mrv0541 11231401522D          

  8  8  0  0  1  0            999 V2000
    0.2603   -0.3295    0.0000 B   0  0  0  0  0  0  0  0  0  0  0  0
    1.0871   -0.3393    0.0000 C   0  0  2  0  0  0  0  0  0  0  0  0
    2.3555    0.0659    0.0000 O   0  0  0  0  0  0  0  0  0  0  0  0
    1.5649   -1.0081    0.0000 C   0  0  0  0  0  0  0  0  0  0  0  0
   -0.1548   -1.0476    0.0000 O   0  0  0  0  0  0  0  0  0  0  0  0
   -0.1449    0.3821    0.0000 O   0  0  0  0  0  0  0  0  0  0  0  0
    1.5747    0.3261    0.0000 C   0  0  0  0  0  0  0  0  0  0  0  0
    2.3522   -0.7610    0.0000 C   0  0  0  0  0  0  0  0  0  0  0  0
  2  1  1  1  0  0  0
  3  7  1  0  0  0  0
  2  4  1  0  0  0  0
  5  1  1  0  0  0  0
  6  1  1  0  0  0  0
  2  7  1  0  0  0  0
  8  4  1  0  0  0  0
  3  8  1  0  0  0  0
M  END
> <From>
www.bindingDB.org

> <BindingDB Reactant_set_id>
50054801

> <Ligand InChI>
InChI=1S/C4H9BO3/c6-5(7)4-1-2-8-3-4/h4,6-7H,1-3H2/t4-/m1/s1

> <Ligand InChI Key>
IRBSKLMCHCHFQE-SCSAIBSYSA-N

> <BindingDB MonomerID>
50067888

> <BindingDB Ligand Name>
(3R)-tetrahydrofuran boronic acid::CHEMBL140723

> <Target Name>
Beta-lactamase

> <Target Source Organism According to Curator or DataSource>
Escherichia coli

> <Ki (nM)>
 1400

> <IC50 (nM)>


> <Kd (nM)>


> <EC50 (nM)>


> <kon (M-1-s-1)>


> <koff (s-1)>


> <pH>


> <Temp C>


> <Curation/DataSource>
ChEMBL

> <Article DOI>
10.1021/jm980343w

> <BindingDB Entry DOI>
10.7270/Q22N51FX

> <PMID>
9804697

> <PubChem AID>


> <Patent Number>


> <Authors>
Weston, GS; Blazquez, J; Baquero, F; Shoichet, BK

> <Institution>
Northwestern University Medical School

> <Link to Ligand in BindingDB>
http://www.bindingdb.org/bind/chemsearch/marvin/MolStructure.jsp?monomerid=50067888

> <Link to Ligand-Target Pair in BindingDB>
http://www.bindingdb.org/jsp/dbsearch/PrimarySearch_ki.jsp?energyterm=kJ/mole&tag=pol&polymerid=4401&target=Beta-lactamase&column=ki&startPg=0&Increment=50&submit=Search

> <Link to Ligand-Target Pair in BindingDB>
http://www.bindingdb.org/jsp/dbsearch/PrimarySearch_ki.jsp?energyterm=kJ/mole&tag=r21&monomerid=50067888&enzyme=Beta-lactamase&column=ki&startPg=0&Increment=50&submit=Search

> <Ligand HET ID in PDB>


> <PDB ID(s) for Ligand-Target Complex>


> <PubChem CID of Ligand>
23377398

> <PubChem SID of Ligand>
103962314

> <ChEBI ID of Ligand>


> <ChEMBL ID of Ligand>
CHEMBL140723

> <DrugBank ID of Ligand>


> <IUPHAR_GRAC ID of Ligand>


> <KEGG ID of Ligand>


> <ZINC ID of Ligand>


> <Number of Protein Chains in Target (bigger than 1 implies a multichain complex)>
1

> <BindingDB Target Chain Sequence>
MFKTTLCALLITASCSTFAAPQQINDIVHRTITPLIEQQKIPGMAVAVIYQGKPYYFTWGYADIAKKQPVTQQTLFELGSVSKTFTGVLGGDAIARGEIKLSDPTTKYWPELTAKQWNGITLLHLATYTAGGLPLQVPDEVKSSSDLLRFYQNWQPAWAPGTQRLYANSSIGLFGALAVKPSGLSFEQAMQTRVFQPLKLNHTWINVPPAEEKNYAWGYREGKAVHVSPGALDAEAYGVKSTIEDMARWVQSNLKPLDINEKTLQQGIQLAQSRYWQTGDMYQGLGWEMLDWPVNPDSIINGSDNKIALAARPVKAITPPTPAVRASWVHKTGATGGFGSYVAFIPEKELGIVMLANKNYPNPARVDAAWQILNALQ

> <PDB ID(s) of Target Chain>
1C3B,1FCO,1FSW,1FSY,1GA9,1IEL,1IEM,1KDS,1KDW,1KE0,1KE3,1KE4,1KVM,1L2S,1LL5,1LL9,1LLB,1MXO,1MY8,1XGI,1XGJ,2BLS,2HDQ,2HDR,2HDS,2HDU,2I72,2P9V,2PU2,2PU4,2R9W,2R9X,2RCX,3BLS,3BM6,3GQZ,3GR2,3GRJ,3GSG,3GTC,3GV9,3GVB,3O86,3O87,3O88,4E3I,4E3J,4E3K,4E3L,4E3M,4E3N,4E3O,4JXG,4JXS,4JXV,4JXW,4KG2,4KZ3,4KZ4,4KZ5,4KZ6,4KZ7,4KZ8,4KZ9,4KZA,4KZB,4LV0,4LV1,4LV2,4LV3,4OKP,4OLD,4OLG,6DPT,6DPX,6DPY,6DPZ,6T35,6T3D,6T5Y,6T7L,6TBW,6TPM,6WGQ,6YEN,6YEO,6YPD

> <UniProt (SwissProt) Recommended Name of Target Chain>
Beta-lactamase

> <UniProt (SwissProt) Entry Name of Target Chain>
AMPC_ECOLI

> <UniProt (SwissProt) Primary ID of Target Chain>
P00811

> <UniProt (SwissProt) Secondary ID(s) of Target Chain>
Q2M6F2

> <UniProt (SwissProt) Alternative ID(s) of Target Chain>


> <UniProt (TrEMBL) Submitted Name of Target Chain>


> <UniProt (TrEMBL) Entry Name of Target Chain>


> <UniProt (TrEMBL) Primary ID of Target Chain>


> <UniProt (TrEMBL) Secondary ID(s) of Target Chain>


> <UniProt (TrEMBL) Alternative ID(s) of Target Chain>


$$$$

  Mrv0541 11231414582D          

 20 22  0  0  0  0            999 V2000
    7.3639  -15.1544    0.0000 C   0  0  0  0  0  0  0  0  0  0  0  0
    7.3629  -15.9810    0.0000 C   0  0  0  0  0  0  0  0  0  0  0  0
    8.0767  -16.3936    0.0000 C   0  0  0  0  0  0  0  0  0  0  0  0
    8.0750  -14.7419    0.0000 C   0  0  0  0  0  0  0  0  0  0  0  0
    8.7893  -15.1510    0.0000 C   0  0  0  0  0  0  0  0  0  0  0  0
    8.7894  -15.9765    0.0000 C   0  0  0  0  0  0  0  0  0  0  0  0
    9.5745  -16.2315    0.0000 C   0  0  0  0  0  0  0  0  0  0  0  0
   10.0597  -15.5636    0.0000 O   0  0  0  0  0  0  0  0  0  0  0  0
    9.5744  -14.8959    0.0000 B   0  0  0  0  0  0  0  0  0  0  0  0
    9.8290  -14.1118    0.0000 O   0  0  0  0  0  0  0  0  0  0  0  0
    6.6498  -14.7425    0.0000 O   0  0  0  0  0  0  0  0  0  0  0  0
    5.9361  -15.1549    0.0000 C   0  0  0  0  0  0  0  0  0  0  0  0
    5.2238  -14.7386    0.0000 C   0  0  0  0  0  0  0  0  0  0  0  0
    4.5104  -15.1504    0.0000 C   0  0  0  0  0  0  0  0  0  0  0  0
    4.5103  -15.9757    0.0000 C   0  0  0  0  0  0  0  0  0  0  0  0
    5.2295  -16.3875    0.0000 C   0  0  0  0  0  0  0  0  0  0  0  0
    5.9398  -15.9733    0.0000 C   0  0  0  0  0  0  0  0  0  0  0  0
    3.7948  -14.7355    0.0000 C   0  0  0  0  0  0  0  0  0  0  0  0
    3.7949  -13.9112    0.0000 O   0  0  0  0  0  0  0  0  0  0  0  0
    3.0808  -15.1477    0.0000 O   0  0  0  0  0  0  0  0  0  0  0  0
  4  1  2  0  0  0  0
  9 10  1  0  0  0  0
  5  6  2  0  0  0  0
  1 11  1  0  0  0  0
 11 12  1  0  0  0  0
  2  3  2  0  0  0  0
 12 13  2  0  0  0  0
  3  6  1  0  0  0  0
 13 14  1  0  0  0  0
  1  2  1  0  0  0  0
 14 15  2  0  0  0  0
  5  4  1  0  0  0  0
 15 16  1  0  0  0  0
  6  7  1  0  0  0  0
 16 17  2  0  0  0  0
 17 12  1  0  0  0  0
  7  8  1  0  0  0  0
  8  9  1  0  0  0  0
  9  5  1  0  0  0  0
 18 19  2  0  0  0  0
 18 20  1  0  0  0  0
 14 18  1  0  0  0  0
M  END
> <From>
www.bindingDB.org

> <BindingDB Reactant_set_id>
50629873

> <Ligand InChI>
InChI=1S/C14H11BO5/c16-14(17)9-2-1-3-11(6-9)20-12-5-4-10-8-19-15(18)13(10)7-12/h1-7,18H,8H2,(H,16,17)

> <Ligand InChI Key>
QGSZKBAQTGRVOX-UHFFFAOYSA-N

> <BindingDB MonomerID>
50339862

> <BindingDB Ligand Name>
3-(1-hydroxy-1,3-dihydrobenzo[c][1,2]oxaborol-6-yloxy)benzoic acid::CHEMBL1761268

> <Target Name>
Beta-lactamase

> <Target Source Organism According to Curator or DataSource>
Enterobacter cloacae

> <Ki (nM)>
 1440

> <IC50 (nM)>


> <Kd (nM)>


> <EC50 (nM)>


> <kon (M-1-s-1)>


> <koff (s-1)>


> <pH>


> <Temp C>


> <Curation/DataSource>
ChEMBL

> <Article DOI>
10.1016/j.bmcl.2011.02.024

> <BindingDB Entry DOI>
10.7270/Q2G44QK5

> <PMID>
21392987

> <PubChem AID>


> <Patent Number>


> <Authors>
Xia, Y; Cao, K; Zhou, Y; Alley, MR; Rock, F; Mohan, M; Meewan, M; Baker, SJ; Lux, S; Ding, CZ; Jia, G; Kully, M; Plattner, JJ

> <Institution>
Anacor Pharmaceuticals Inc

> <Link to Ligand in BindingDB>
http://www.bindingdb.org/bind/chemsearch/marvin/MolStructure.jsp?monomerid=50339862

> <Link to Ligand-Target Pair in BindingDB>
http://www.bindingdb.org/jsp/dbsearch/PrimarySearch_ki.jsp?energyterm=kJ/mole&tag=pol&polymerid=50002394&target=Beta-lactamase&column=ki&startPg=0&Increment=50&submit=Search

> <Link to Ligand-Target Pair in BindingDB>
http://www.bindingdb.org/jsp/dbsearch/PrimarySearch_ki.jsp?energyterm=kJ/mole&tag=r21&monomerid=50339862&enzyme=Beta-lactamase&column=ki&startPg=0&Increment=50&submit=Search

> <Ligand HET ID in PDB>


> <PDB ID(s) for Ligand-Target Complex>


> <PubChem CID of Ligand>
44480166

> <PubChem SID of Ligand>
131342798

> <ChEBI ID of Ligand>


> <ChEMBL ID of Ligand>
CHEMBL1761268

> <DrugBank ID of Ligand>


> <IUPHAR_GRAC ID of Ligand>


> <KEGG ID of Ligand>


> <ZINC ID of Ligand>


> <Number of Protein Chains in Target (bigger than 1 implies a multichain complex)>
1

> <BindingDB Target Chain Sequence>
MMRKSLCCALLLGISCSALATPVSEKQLAEVVANTITPLMKAQSVPGMAVAVIYQGKPHYYTFGKADIAANKPVTPQTLFELGSISKTFTGVLGGDAIARGEISLDDAVTRYWPQLTGKQWQGIRMLDLATYTAGGLPLQVPDEVTDNASLLRFYQNWQPQWKPGTTRLYANASIGLFGALAVKPSGMPYEQAMTTRVLKPLKLDHTWINVPKAEEAHYAWGYRDGKAVRVSPGMLDAQAYGVKTNVQDMANWVMANMAPENVADASLKQGIALAQSRYWRIGSMYQGLGWEMLNWPVEANTVVEGSDSKVALAPLPVAEVNPPAPPVKASWVHKTGSTGGFGSYVAFIPEKQIGIVMLANTSYPNPARVEAAYHILEALQ

> <PDB ID(s) of Target Chain>
1XX2,2Q9M,2Q9N,7TI1

> <UniProt (SwissProt) Recommended Name of Target Chain>
Beta-lactamase

> <UniProt (SwissProt) Entry Name of Target Chain>
AMPC_ENTCL

> <UniProt (SwissProt) Primary ID of Target Chain>
P05364

> <UniProt (SwissProt) Secondary ID(s) of Target Chain>


> <UniProt (SwissProt) Alternative ID(s) of Target Chain>


> <UniProt (TrEMBL) Submitted Name of Target Chain>


> <UniProt (TrEMBL) Entry Name of Target Chain>


> <UniProt (TrEMBL) Primary ID of Target Chain>


> <UniProt (TrEMBL) Secondary ID(s) of Target Chain>


> <UniProt (TrEMBL) Alternative ID(s) of Target Chain>


$$$$
 
  Mrv0541 11221422532D          

 15 16  0  0  0  0            999 V2000
   -0.9000   -2.9333    0.0000 N   0  0  0  0  0  0  0  0  0  0  0  0
   -1.7250   -2.9333    0.0000 C   0  0  0  0  0  0  0  0  0  0  0  0
   -0.8917   -2.1083    0.0000 C   0  0  2  0  0  0  0  0  0  0  0  0
   -0.1167   -3.1958    0.0000 C   0  0  2  0  0  0  0  0  0  0  0  0
    0.3750   -2.5333    0.0000 C   0  0  0  0  0  0  0  0  0  0  0  0
   -0.1125   -1.8667    0.0000 S   0  0  0  0  0  0  0  0  0  0  0  0
   -1.7167   -2.1083    0.0000 C   0  0  0  0  0  0  0  0  0  0  0  0
    0.1333   -3.9833    0.0000 C   0  0  0  0  0  0  0  0  0  0  0  0
   -2.3125   -3.5083    0.0000 O   0  0  0  0  0  0  0  0  0  0  0  0
    0.9375   -4.1583    0.0000 O   0  0  0  0  0  0  0  0  0  0  0  0
   -0.3292   -1.0667    0.0000 O   0  0  0  0  0  0  0  0  0  0  0  0
    0.6833   -1.6500    0.0000 O   0  0  0  0  0  0  0  0  0  0  0  0
    1.0875   -2.1167    0.0000 C   0  0  0  0  0  0  0  0  0  0  0  0
    1.0875   -2.9458    0.0000 C   0  0  0  0  0  0  0  0  0  0  0  0
   -0.4222   -4.5932    0.0000 O   0  0  0  0  0  0  0  0  0  0  0  0
  3  6  1  0  0  0  0
  3  7  1  0  0  0  0
  4  8  1  6  0  0  0
  9  2  2  0  0  0  0
 10  8  2  0  0  0  0
  7  2  1  0  0  0  0
  5  6  1  0  0  0  0
  6 11  2  0  0  0  0
  2  1  1  0  0  0  0
  6 12  2  0  0  0  0
  3  1  1  1  0  0  0
  5 13  1  0  0  0  0
  4  1  1  0  0  0  0
  5 14  1  0  0  0  0
  4  5  1  0  0  0  0
  8 15  1  0  0  0  0
M  END
> <From>
www.bindingDB.org

> <BindingDB Reactant_set_id>
293328

> <Ligand InChI>
InChI=1S/C8H11NO5S/c1-8(2)6(7(11)12)9-4(10)3-5(9)15(8,13)14/h5-6H,3H2,1-2H3,(H,11,12)/t5-,6+/m1/s1

> <Ligand InChI Key>
FKENQMMABCRJMK-RITPCOANSA-N

> <BindingDB MonomerID>
50021954

> <BindingDB Ligand Name>
(2S,5R)-3,3-Dimethyl-4,4,7-trioxo-4lambda*6*-thia-1-aza-bicyclo[3.2.0]heptane-2-carboxylic acid::(S)-3,3-Dimethyl-7-(R)-oxo-4,4-dioxo-4lambda*6*-thia-1-aza-bicyclo[3.2.0]heptane-2-carboxylic acid::3,3-Dimethyl-4,4,7-trioxo-4lambda*6*-thia-1-aza-bicyclo[3.2.0]heptane-2-carboxylic acid::3,3-Dimethyl-4,4,7-trioxo-4lambda*6*-thia-1-aza-bicyclo[3.2.0]heptane-2-carboxylic acid (Sulbactam)::CHEMBL403::CP-45,899::SULBACTAM::UNASYN::US9120808, Sulbactam sodium salt

> <Target Name>
Beta-lactamase SHV-1

> <Target Source Organism According to Curator or DataSource>


> <Ki (nM)>
 1.5e+3

> <IC50 (nM)>
 3.4e+3

> <Kd (nM)>


> <EC50 (nM)>


> <kon (M-1-s-1)>


> <koff (s-1)>


> <pH>
7.4

> <Temp C>


> <Curation/DataSource>
Curated from the literature by BindingDB

> <Article DOI>
10.1021/bi501197t

> <BindingDB Entry DOI>
10.7270/Q2736PNW

> <PMID>
25536850

> <PubChem AID>
aid1801066

> <Patent Number>


> <Authors>
Che, T; Rodkey, EA; Bethel, CR; Shanmugam, S; Ding, Z; Pusztai-Carey, M; Nottingham, M; Chai, W; Buynak, JD; Bonomo, RA; van den Akker, F; Carey, PR

> <Institution>
Case Western Reserve University

> <Link to Ligand in BindingDB>
http://www.bindingdb.org/bind/chemsearch/marvin/MolStructure.jsp?monomerid=50021954

> <Link to Ligand-Target Pair in BindingDB>
http://www.bindingdb.org/jsp/dbsearch/PrimarySearch_ki.jsp?energyterm=kJ/mole&tag=pol&polymerid=6997&target=Beta-lactamase+SHV-1&column=ki&startPg=0&Increment=50&submit=Search

> <Link to Ligand-Target Pair in BindingDB>
http://www.bindingdb.org/jsp/dbsearch/PrimarySearch_ki.jsp?energyterm=kJ/mole&tag=r21&monomerid=50021954&enzyme=Beta-lactamase+SHV-1&column=ki&startPg=0&Increment=50&submit=Search

> <Ligand HET ID in PDB>
0RN

> <PDB ID(s) for Ligand-Target Complex>
7K8K,4FH2,8EBR

> <PubChem CID of Ligand>
130313

> <PubChem SID of Ligand>
103932643

> <ChEBI ID of Ligand>
9321

> <ChEMBL ID of Ligand>
CHEMBL403

> <DrugBank ID of Ligand>
DB09324

> <IUPHAR_GRAC ID of Ligand>


> <KEGG ID of Ligand>
C07770

> <ZINC ID of Ligand>
ZINC00897244

> <Number of Protein Chains in Target (bigger than 1 implies a multichain complex)>
1

> <BindingDB Target Chain Sequence>
MRYIRLCIISLLATLPLAVHASPQPLEQIKLSESQLSGRVGMIEMDLASGRTLTAWRADERFPMMSTFKV
VLCGAVLARVDAGDEQLERKIHYRQQDLVDYSPVSEKHLADGMTVGELCAAAITMSDNSAANLLLATVGG
PAGLTAFLRQIGDNVTRLDRWETELNEALPGDARDTTTPASMAATLRKLLTSQRLSARSQRQLLQWMVDD
RVAGPLIRSVLPAGWFIADKTGAGERGARGIVALLGPNNKAERIVVIYLRDTPASMAERNQQIAGIGAAL
IEHWQR

> <PDB ID(s) of Target Chain>
1ONG,1Q2P,1SHV,1VM1,2G2U,2H5S,2ZD8,3C4O,3C4P,3D4F,3MKE,3MKF,3MXR,3MXS,4FH4,4GD6,4GD8,4GDB,4JPM,4MBF,4R3B,4ZAM,5EE8

> <UniProt (SwissProt) Recommended Name of Target Chain>
Beta-lactamase SHV-1

> <UniProt (SwissProt) Entry Name of Target Chain>
BLA1_KLEPN

> <UniProt (SwissProt) Primary ID of Target Chain>
P0AD64

> <UniProt (SwissProt) Secondary ID(s) of Target Chain>
O07941 P14557 P23982

> <UniProt (SwissProt) Alternative ID(s) of Target Chain>


> <UniProt (TrEMBL) Submitted Name of Target Chain>


> <UniProt (TrEMBL) Entry Name of Target Chain>


> <UniProt (TrEMBL) Primary ID of Target Chain>


> <UniProt (TrEMBL) Secondary ID(s) of Target Chain>


> <UniProt (TrEMBL) Alternative ID(s) of Target Chain>


$$$$

  Mrv0541 11211416132D          

 21 22  0  0  0  0            999 V2000
    1.7501    2.2156    0.0000 N   0  3  0  0  0  0  0  0  0  0  0  0
    1.7501    1.3801    0.0000 C   0  0  0  0  0  0  0  0  0  0  0  0
    1.0475    0.9685    0.0000 C   0  0  0  0  0  0  0  0  0  0  0  0
    0.3409   -0.2661    0.0000 N   0  0  0  0  0  0  0  0  0  0  0  0
   -1.7958   -2.3362    0.0000 B   0  5  0  0  0  0  0  0  0  0  0  0
    1.0517    0.1579    0.0000 C   0  0  0  0  0  0  0  0  0  0  0  0
   -0.3699    0.1455    0.0000 N   0  0  0  0  0  0  0  0  0  0  0  0
   -1.7958   -1.5132    0.0000 C   0  0  0  0  0  0  0  0  0  0  0  0
    2.4609    2.6272    0.0000 O   0  5  0  0  0  0  0  0  0  0  0  0
   -1.0808   -1.1016    0.0000 C   0  0  0  0  0  0  0  0  0  0  0  0
    1.0351    2.6147    0.0000 O   0  0  0  0  0  0  0  0  0  0  0  0
   -1.0808   -0.2785    0.0000 C   0  0  0  0  0  0  0  0  0  0  0  0
    0.3284    1.3676    0.0000 O   0  0  0  0  0  0  0  0  0  0  0  0
   -2.5149   -2.7478    0.0000 O   0  3  0  0  0  0  0  0  0  0  0  0
   -1.0808   -2.7478    0.0000 O   0  0  0  0  0  0  0  0  0  0  0  0
    2.4734    0.9685    0.0000 C   0  0  0  0  0  0  0  0  0  0  0  0
    1.7626   -0.2661    0.0000 C   0  0  0  0  0  0  0  0  0  0  0  0
   -2.5149   -1.1016    0.0000 C   0  0  0  0  0  0  0  0  0  0  0  0
    2.4734    0.1579    0.0000 C   0  0  0  0  0  0  0  0  0  0  0  0
   -2.5149   -0.2785    0.0000 C   0  0  0  0  0  0  0  0  0  0  0  0
   -1.7958    0.1330    0.0000 C   0  0  0  0  0  0  0  0  0  0  0  0
  2  1  1  0  0  0  0
  3  2  2  0  0  0  0
  4  6  1  0  0  0  0
  5  8  1  0  0  0  0
  6  3  1  0  0  0  0
  7  4  2  0  0  0  0
  8 10  2  0  0  0  0
  9  1  1  0  0  0  0
 10 12  1  0  0  0  0
 11  1  2  0  0  0  0
  7 12  1  4  0  0  0
 13  3  1  0  0  0  0
 14  5  2  0  0  0  0
 15  5  1  0  0  0  0
 16  2  1  0  0  0  0
 17 19  1  0  0  0  0
 18 20  2  0  0  0  0
 19 16  2  0  0  0  0
 20 21  1  0  0  0  0
 21 12  2  0  0  0  0
  6 17  2  0  0  0  0
  8 18  1  0  0  0  0
M  CHG  4   1   1   5  -1   9  -1  14   1
M  END
> <From>
www.bindingDB.org

> <BindingDB Reactant_set_id>
50275064

> <Ligand InChI>
InChI=1S/C12H10BN3O5/c17-12-10(5-2-6-11(12)16(20)21)15-14-9-4-1-3-8(7-9)13(18)19/h1-7,17-19H

> <Ligand InChI Key>
VHZZVCJTXCUJEH-UHFFFAOYSA-N

> <BindingDB MonomerID>
50149783

> <BindingDB Ligand Name>
Aza-boronic acid derivative::CHEMBL182644

> <Target Name>
Beta-lactamase

> <Target Source Organism According to Curator or DataSource>
Escherichia coli

> <Ki (nM)>
 1500

> <IC50 (nM)>


> <Kd (nM)>


> <EC50 (nM)>


> <kon (M-1-s-1)>


> <koff (s-1)>


> <pH>


> <Temp C>


> <Curation/DataSource>
ChEMBL

> <Article DOI>
10.1016/j.bmcl.2004.05.054

> <BindingDB Entry DOI>
10.7270/Q2XW4J8P

> <PMID>
15225711

> <PubChem AID>


> <Patent Number>


> <Authors>
Buzzoni, V; Blazquez, J; Ferrari, S; Calo, S; Venturelli, A; Costi, MP

> <Institution>
Universit&#224; degli Studi di Modena e Reggio Emilia

> <Link to Ligand in BindingDB>
http://www.bindingdb.org/bind/chemsearch/marvin/MolStructure.jsp?monomerid=50149783

> <Link to Ligand-Target Pair in BindingDB>
http://www.bindingdb.org/jsp/dbsearch/PrimarySearch_ki.jsp?energyterm=kJ/mole&tag=pol&polymerid=4401&target=Beta-lactamase&column=ki&startPg=0&Increment=50&submit=Search

> <Link to Ligand-Target Pair in BindingDB>
http://www.bindingdb.org/jsp/dbsearch/PrimarySearch_ki.jsp?energyterm=kJ/mole&tag=r21&monomerid=50149783&enzyme=Beta-lactamase&column=ki&startPg=0&Increment=50&submit=Search

> <Ligand HET ID in PDB>


> <PDB ID(s) for Ligand-Target Complex>


> <PubChem CID of Ligand>
44392729

> <PubChem SID of Ligand>
104037858

> <ChEBI ID of Ligand>


> <ChEMBL ID of Ligand>
CHEMBL182644

> <DrugBank ID of Ligand>


> <IUPHAR_GRAC ID of Ligand>


> <KEGG ID of Ligand>


> <ZINC ID of Ligand>


> <Number of Protein Chains in Target (bigger than 1 implies a multichain complex)>
1

> <BindingDB Target Chain Sequence>
MFKTTLCALLITASCSTFAAPQQINDIVHRTITPLIEQQKIPGMAVAVIYQGKPYYFTWGYADIAKKQPVTQQTLFELGSVSKTFTGVLGGDAIARGEIKLSDPTTKYWPELTAKQWNGITLLHLATYTAGGLPLQVPDEVKSSSDLLRFYQNWQPAWAPGTQRLYANSSIGLFGALAVKPSGLSFEQAMQTRVFQPLKLNHTWINVPPAEEKNYAWGYREGKAVHVSPGALDAEAYGVKSTIEDMARWVQSNLKPLDINEKTLQQGIQLAQSRYWQTGDMYQGLGWEMLDWPVNPDSIINGSDNKIALAARPVKAITPPTPAVRASWVHKTGATGGFGSYVAFIPEKELGIVMLANKNYPNPARVDAAWQILNALQ

> <PDB ID(s) of Target Chain>
1C3B,1FCO,1FSW,1FSY,1GA9,1IEL,1IEM,1KDS,1KDW,1KE0,1KE3,1KE4,1KVM,1L2S,1LL5,1LL9,1LLB,1MXO,1MY8,1XGI,1XGJ,2BLS,2HDQ,2HDR,2HDS,2HDU,2I72,2P9V,2PU2,2PU4,2R9W,2R9X,2RCX,3BLS,3BM6,3GQZ,3GR2,3GRJ,3GSG,3GTC,3GV9,3GVB,3O86,3O87,3O88,4E3I,4E3J,4E3K,4E3L,4E3M,4E3N,4E3O,4JXG,4JXS,4JXV,4JXW,4KG2,4KZ3,4KZ4,4KZ5,4KZ6,4KZ7,4KZ8,4KZ9,4KZA,4KZB,4LV0,4LV1,4LV2,4LV3,4OKP,4OLD,4OLG,6DPT,6DPX,6DPY,6DPZ,6T35,6T3D,6T5Y,6T7L,6TBW,6TPM,6WGQ,6YEN,6YEO,6YPD

> <UniProt (SwissProt) Recommended Name of Target Chain>
Beta-lactamase

> <UniProt (SwissProt) Entry Name of Target Chain>
AMPC_ECOLI

> <UniProt (SwissProt) Primary ID of Target Chain>
P00811

> <UniProt (SwissProt) Secondary ID(s) of Target Chain>
Q2M6F2

> <UniProt (SwissProt) Alternative ID(s) of Target Chain>


> <UniProt (TrEMBL) Submitted Name of Target Chain>


> <UniProt (TrEMBL) Entry Name of Target Chain>


> <UniProt (TrEMBL) Primary ID of Target Chain>


> <UniProt (TrEMBL) Secondary ID(s) of Target Chain>


> <UniProt (TrEMBL) Alternative ID(s) of Target Chain>


$$$$

  Mrv0541 11191401012D          

 20 21  0  0  0  0            999 V2000
    0.9290   -0.3905    0.0000 C   0  0  0  0  0  0  0  0  0  0  0  0
    0.2146   -0.8030    0.0000 C   0  0  0  0  0  0  0  0  0  0  0  0
   -0.4999   -0.3905    0.0000 C   0  0  0  0  0  0  0  0  0  0  0  0
   -0.4999    0.4345    0.0000 C   0  0  0  0  0  0  0  0  0  0  0  0
    0.2146    0.8470    0.0000 C   0  0  0  0  0  0  0  0  0  0  0  0
    0.9290    0.4345    0.0000 C   0  0  0  0  0  0  0  0  0  0  0  0
   -1.2144    0.8470    0.0000 B   0  0  0  0  0  0  0  0  0  0  0  0
   -1.9288    0.4345    0.0000 O   0  0  0  0  0  0  0  0  0  0  0  0
   -1.2144    1.6720    0.0000 O   0  0  0  0  0  0  0  0  0  0  0  0
    1.6435    0.8470    0.0000 N   0  0  0  0  0  0  0  0  0  0  0  0
    1.6435    1.6720    0.0000 S   0  0  0  0  0  0  0  0  0  0  0  0
    1.6435    2.4970    0.0000 C   0  0  0  0  0  0  0  0  0  0  0  0
    0.8185    1.6720    0.0000 O   0  0  0  0  0  0  0  0  0  0  0  0
    2.4685    1.6720    0.0000 O   0  0  0  0  0  0  0  0  0  0  0  0
    2.0560    3.7665    0.0000 N   0  0  0  0  0  0  0  0  0  0  0  0
    1.3886    3.2816    0.0000 C   0  0  0  0  0  0  0  0  0  0  0  0
    2.4685    2.4970    0.0000 C   0  0  0  0  0  0  0  0  0  0  0  0
    2.7234    3.2816    0.0000 N   0  0  0  0  0  0  0  0  0  0  0  0
    3.0519    1.9136    0.0000 Cl  0  0  0  0  0  0  0  0  0  0  0  0
    3.5484    3.2816    0.0000 C   0  0  0  0  0  0  0  0  0  0  0  0
  1  2  2  0  0  0  0
  2  3  1  0  0  0  0
  3  4  2  0  0  0  0
  4  5  1  0  0  0  0
  5  6  2  0  0  0  0
  1  6  1  0  0  0  0
  4  7  1  0  0  0  0
  7  8  1  0  0  0  0
  7  9  1  0  0  0  0
  6 10  1  0  0  0  0
 10 11  1  0  0  0  0
 11 12  1  0  0  0  0
 11 13  2  0  0  0  0
 11 14  2  0  0  0  0
 16 12  1  0  0  0  0
 12 17  2  0  0  0  0
 15 16  2  0  0  0  0
 17 18  1  0  0  0  0
 15 18  1  0  0  0  0
 17 19  1  0  0  0  0
 18 20  1  0  0  0  0
M  END
> <From>
www.bindingDB.org

> <BindingDB Reactant_set_id>
74812

> <Ligand InChI>
InChI=1S/C10H11BClN3O4S/c1-15-10(12)9(6-13-15)20(18,19)14-8-4-2-3-7(5-8)11(16)17/h2-6,14,16-17H,1H3

> <Ligand InChI Key>
IEYUWTBPWSCDBX-UHFFFAOYSA-N

> <BindingDB MonomerID>
39826

> <BindingDB Ligand Name>
Amide and sulfonamide derivatives, 10

> <Target Name>
Beta-lactamase

> <Target Source Organism According to Curator or DataSource>
Escherichia coli

> <Ki (nM)>
 1.6e+3

> <IC50 (nM)>


> <Kd (nM)>


> <EC50 (nM)>


> <kon (M-1-s-1)>


> <koff (s-1)>


> <pH>
7

> <Temp C>


> <Curation/DataSource>
Curated from the literature by BindingDB

> <Article DOI>
10.1016/S1074-5521(01)00034-5

> <BindingDB Entry DOI>
10.7270/Q27M06BZ

> <PMID>
11410378

> <PubChem AID>
aid1799472

> <Patent Number>


> <Authors>
Tondi, D; Powers, RA; Caselli, E; Negri, MC; Bl&aacute;zquez, J; Costi, MP; Shoichet, BK

> <Institution>
Northwestern University

> <Link to Ligand in BindingDB>
http://www.bindingdb.org/bind/chemsearch/marvin/MolStructure.jsp?monomerid=39826

> <Link to Ligand-Target Pair in BindingDB>
http://www.bindingdb.org/jsp/dbsearch/PrimarySearch_ki.jsp?energyterm=kJ/mole&tag=pol&polymerid=4401&target=Beta-lactamase&column=ki&startPg=0&Increment=50&submit=Search

> <Link to Ligand-Target Pair in BindingDB>
http://www.bindingdb.org/jsp/dbsearch/PrimarySearch_ki.jsp?energyterm=kJ/mole&tag=r21&monomerid=39826&enzyme=Beta-lactamase&column=ki&startPg=0&Increment=50&submit=Search

> <Ligand HET ID in PDB>


> <PDB ID(s) for Ligand-Target Complex>


> <PubChem CID of Ligand>
52939997

> <PubChem SID of Ligand>
123080134

> <ChEBI ID of Ligand>


> <ChEMBL ID of Ligand>


> <DrugBank ID of Ligand>


> <IUPHAR_GRAC ID of Ligand>


> <KEGG ID of Ligand>


> <ZINC ID of Ligand>


> <Number of Protein Chains in Target (bigger than 1 implies a multichain complex)>
1

> <BindingDB Target Chain Sequence>
MFKTTLCALLITASCSTFAAPQQINDIVHRTITPLIEQQKIPGMAVAVIYQGKPYYFTWGYADIAKKQPVTQQTLFELGSVSKTFTGVLGGDAIARGEIKLSDPTTKYWPELTAKQWNGITLLHLATYTAGGLPLQVPDEVKSSSDLLRFYQNWQPAWAPGTQRLYANSSIGLFGALAVKPSGLSFEQAMQTRVFQPLKLNHTWINVPPAEEKNYAWGYREGKAVHVSPGALDAEAYGVKSTIEDMARWVQSNLKPLDINEKTLQQGIQLAQSRYWQTGDMYQGLGWEMLDWPVNPDSIINGSDNKIALAARPVKAITPPTPAVRASWVHKTGATGGFGSYVAFIPEKELGIVMLANKNYPNPARVDAAWQILNALQ

> <PDB ID(s) of Target Chain>
1C3B,1FCO,1FSW,1FSY,1GA9,1IEL,1IEM,1KDS,1KDW,1KE0,1KE3,1KE4,1KVM,1L2S,1LL5,1LL9,1LLB,1MXO,1MY8,1XGI,1XGJ,2BLS,2HDQ,2HDR,2HDS,2HDU,2I72,2P9V,2PU2,2PU4,2R9W,2R9X,2RCX,3BLS,3BM6,3GQZ,3GR2,3GRJ,3GSG,3GTC,3GV9,3GVB,3O86,3O87,3O88,4E3I,4E3J,4E3K,4E3L,4E3M,4E3N,4E3O,4JXG,4JXS,4JXV,4JXW,4KG2,4KZ3,4KZ4,4KZ5,4KZ6,4KZ7,4KZ8,4KZ9,4KZA,4KZB,4LV0,4LV1,4LV2,4LV3,4OKP,4OLD,4OLG,6DPT,6DPX,6DPY,6DPZ,6T35,6T3D,6T5Y,6T7L,6TBW,6TPM,6WGQ,6YEN,6YEO,6YPD

> <UniProt (SwissProt) Recommended Name of Target Chain>
Beta-lactamase

> <UniProt (SwissProt) Entry Name of Target Chain>
AMPC_ECOLI

> <UniProt (SwissProt) Primary ID of Target Chain>
P00811

> <UniProt (SwissProt) Secondary ID(s) of Target Chain>
Q2M6F2

> <UniProt (SwissProt) Alternative ID(s) of Target Chain>


> <UniProt (TrEMBL) Submitted Name of Target Chain>


> <UniProt (TrEMBL) Entry Name of Target Chain>


> <UniProt (TrEMBL) Primary ID of Target Chain>


> <UniProt (TrEMBL) Secondary ID(s) of Target Chain>


> <UniProt (TrEMBL) Alternative ID(s) of Target Chain>


$$$$

  Mrv0541 11231401522D          

 11 11  0  0  0  0            999 V2000
    5.1335   -5.4540    0.0000 C   0  0  0  0  0  0  0  0  0  0  0  0
    5.6191   -4.7900    0.0000 S   0  0  0  0  0  0  0  0  0  0  0  0
    6.4021   -5.0543    0.0000 C   0  0  0  0  0  0  0  0  0  0  0  0
    4.3044   -5.4507    0.0000 B   0  0  0  0  0  0  0  0  0  0  0  0
    5.6092   -6.1279    0.0000 C   0  0  0  0  0  0  0  0  0  0  0  0
    6.3955   -5.8801    0.0000 C   0  0  0  0  0  0  0  0  0  0  0  0
    7.0694   -4.5720    0.0000 C   0  0  0  0  0  0  0  0  0  0  0  0
    6.9901   -3.7494    0.0000 O   0  0  0  0  0  0  0  0  0  0  0  0
    3.8882   -6.1675    0.0000 O   0  0  0  0  0  0  0  0  0  0  0  0
    3.8981   -4.7305    0.0000 O   0  0  0  0  0  0  0  0  0  0  0  0
    7.8226   -4.9089    0.0000 C   0  0  0  0  0  0  0  0  0  0  0  0
  2  1  1  0  0  0  0
  3  2  1  0  0  0  0
  4  1  1  0  0  0  0
  5  1  2  0  0  0  0
  6  5  1  0  0  0  0
  7  3  1  0  0  0  0
  8  7  2  0  0  0  0
  9  4  1  0  0  0  0
 10  4  1  0  0  0  0
 11  7  1  0  0  0  0
  3  6  2  0  0  0  0
M  END
> <From>
www.bindingDB.org

> <BindingDB Reactant_set_id>
50117259

> <Ligand InChI>
InChI=1S/C6H7BO3S/c1-4(8)5-2-3-6(11-5)7(9)10/h2-3,9-10H,1H3

> <Ligand InChI Key>
DCNMATSPQKWETQ-UHFFFAOYSA-N

> <BindingDB MonomerID>
50067890

> <BindingDB Ligand Name>
2-thienyl-1-ethanone5-boronic acid::5-acetylthiophen-2-ylboronic acid::CHEMBL139713

> <Target Name>
Beta-lactamase

> <Target Source Organism According to Curator or DataSource>
Escherichia coli

> <Ki (nM)>
 1600

> <IC50 (nM)>


> <Kd (nM)>


> <EC50 (nM)>


> <kon (M-1-s-1)>


> <koff (s-1)>


> <pH>


> <Temp C>


> <Curation/DataSource>
ChEMBL

> <Article DOI>
10.1021/jm980343w

> <BindingDB Entry DOI>
10.7270/Q22N51FX

> <PMID>
9804697

> <PubChem AID>


> <Patent Number>


> <Authors>
Weston, GS; Blazquez, J; Baquero, F; Shoichet, BK

> <Institution>
Northwestern University Medical School

> <Link to Ligand in BindingDB>
http://www.bindingdb.org/bind/chemsearch/marvin/MolStructure.jsp?monomerid=50067890

> <Link to Ligand-Target Pair in BindingDB>
http://www.bindingdb.org/jsp/dbsearch/PrimarySearch_ki.jsp?energyterm=kJ/mole&tag=pol&polymerid=4401&target=Beta-lactamase&column=ki&startPg=0&Increment=50&submit=Search

> <Link to Ligand-Target Pair in BindingDB>
http://www.bindingdb.org/jsp/dbsearch/PrimarySearch_ki.jsp?energyterm=kJ/mole&tag=r21&monomerid=50067890&enzyme=Beta-lactamase&column=ki&startPg=0&Increment=50&submit=Search

> <Ligand HET ID in PDB>


> <PDB ID(s) for Ligand-Target Complex>


> <PubChem CID of Ligand>
4143377

> <PubChem SID of Ligand>
103962316

> <ChEBI ID of Ligand>


> <ChEMBL ID of Ligand>
CHEMBL139713

> <DrugBank ID of Ligand>


> <IUPHAR_GRAC ID of Ligand>


> <KEGG ID of Ligand>


> <ZINC ID of Ligand>


> <Number of Protein Chains in Target (bigger than 1 implies a multichain complex)>
1

> <BindingDB Target Chain Sequence>
MFKTTLCALLITASCSTFAAPQQINDIVHRTITPLIEQQKIPGMAVAVIYQGKPYYFTWGYADIAKKQPVTQQTLFELGSVSKTFTGVLGGDAIARGEIKLSDPTTKYWPELTAKQWNGITLLHLATYTAGGLPLQVPDEVKSSSDLLRFYQNWQPAWAPGTQRLYANSSIGLFGALAVKPSGLSFEQAMQTRVFQPLKLNHTWINVPPAEEKNYAWGYREGKAVHVSPGALDAEAYGVKSTIEDMARWVQSNLKPLDINEKTLQQGIQLAQSRYWQTGDMYQGLGWEMLDWPVNPDSIINGSDNKIALAARPVKAITPPTPAVRASWVHKTGATGGFGSYVAFIPEKELGIVMLANKNYPNPARVDAAWQILNALQ

> <PDB ID(s) of Target Chain>
1C3B,1FCO,1FSW,1FSY,1GA9,1IEL,1IEM,1KDS,1KDW,1KE0,1KE3,1KE4,1KVM,1L2S,1LL5,1LL9,1LLB,1MXO,1MY8,1XGI,1XGJ,2BLS,2HDQ,2HDR,2HDS,2HDU,2I72,2P9V,2PU2,2PU4,2R9W,2R9X,2RCX,3BLS,3BM6,3GQZ,3GR2,3GRJ,3GSG,3GTC,3GV9,3GVB,3O86,3O87,3O88,4E3I,4E3J,4E3K,4E3L,4E3M,4E3N,4E3O,4JXG,4JXS,4JXV,4JXW,4KG2,4KZ3,4KZ4,4KZ5,4KZ6,4KZ7,4KZ8,4KZ9,4KZA,4KZB,4LV0,4LV1,4LV2,4LV3,4OKP,4OLD,4OLG,6DPT,6DPX,6DPY,6DPZ,6T35,6T3D,6T5Y,6T7L,6TBW,6TPM,6WGQ,6YEN,6YEO,6YPD

> <UniProt (SwissProt) Recommended Name of Target Chain>
Beta-lactamase

> <UniProt (SwissProt) Entry Name of Target Chain>
AMPC_ECOLI

> <UniProt (SwissProt) Primary ID of Target Chain>
P00811

> <UniProt (SwissProt) Secondary ID(s) of Target Chain>
Q2M6F2

> <UniProt (SwissProt) Alternative ID(s) of Target Chain>


> <UniProt (TrEMBL) Submitted Name of Target Chain>


> <UniProt (TrEMBL) Entry Name of Target Chain>


> <UniProt (TrEMBL) Primary ID of Target Chain>


> <UniProt (TrEMBL) Secondary ID(s) of Target Chain>


> <UniProt (TrEMBL) Alternative ID(s) of Target Chain>


$$$$

  Mrv0541 11191401012D          

 22 24  0  0  0  0            999 V2000
    0.7194   -0.8242    0.0000 C   0  0  0  0  0  0  0  0  0  0  0  0
    0.0049   -1.2367    0.0000 C   0  0  0  0  0  0  0  0  0  0  0  0
   -0.7095   -0.8242    0.0000 C   0  0  0  0  0  0  0  0  0  0  0  0
   -0.7095    0.0008    0.0000 C   0  0  0  0  0  0  0  0  0  0  0  0
    0.0049    0.4133    0.0000 C   0  0  0  0  0  0  0  0  0  0  0  0
    0.7194    0.0008    0.0000 C   0  0  0  0  0  0  0  0  0  0  0  0
   -1.4240    0.4133    0.0000 B   0  0  0  0  0  0  0  0  0  0  0  0
   -2.1385    0.0008    0.0000 O   0  0  0  0  0  0  0  0  0  0  0  0
   -1.4240    1.2383    0.0000 O   0  0  0  0  0  0  0  0  0  0  0  0
    1.4339    0.4133    0.0000 N   0  0  0  0  0  0  0  0  0  0  0  0
    1.4339    1.2383    0.0000 S   0  0  0  0  0  0  0  0  0  0  0  0
    2.2589    1.2383    0.0000 O   0  0  0  0  0  0  0  0  0  0  0  0
    0.6089    1.2383    0.0000 O   0  0  0  0  0  0  0  0  0  0  0  0
    1.4339    2.0633    0.0000 C   0  0  0  0  0  0  0  0  0  0  0  0
    2.1484    2.4758    0.0000 C   0  0  0  0  0  0  0  0  0  0  0  0
    0.7194    3.3008    0.0000 C   0  0  0  0  0  0  0  0  0  0  0  0
    1.4339    3.7133    0.0000 C   0  0  0  0  0  0  0  0  0  0  0  0
    2.1484    3.3008    0.0000 C   0  0  0  0  0  0  0  0  0  0  0  0
    0.7194    2.4758    0.0000 C   0  0  0  0  0  0  0  0  0  0  0  0
   -0.0652    2.2209    0.0000 N   0  0  0  0  0  0  0  0  0  0  0  0
   -0.5501    2.8883    0.0000 S   0  0  0  0  0  0  0  0  0  0  0  0
   -0.0652    3.5558    0.0000 N   0  0  0  0  0  0  0  0  0  0  0  0
  1  2  2  0  0  0  0
  2  3  1  0  0  0  0
  3  4  2  0  0  0  0
  4  5  1  0  0  0  0
  5  6  2  0  0  0  0
  1  6  1  0  0  0  0
  4  7  1  0  0  0  0
  7  8  1  0  0  0  0
  7  9  1  0  0  0  0
  6 10  1  0  0  0  0
 10 11  1  0  0  0  0
 11 12  2  0  0  0  0
 11 13  2  0  0  0  0
 15 14  2  0  0  0  0
 14 19  1  0  0  0  0
 16 17  1  0  0  0  0
 17 18  2  0  0  0  0
 15 18  1  0  0  0  0
 22 16  1  0  0  0  0
 19 20  1  0  0  0  0
 20 21  1  0  0  0  0
 21 22  1  0  0  0  0
 19 16  2  0  0  0  0
 11 14  1  0  0  0  0
M  END
> <From>
www.bindingDB.org

> <BindingDB Reactant_set_id>
74814

> <Ligand InChI>
InChI=1S/C12H12BN3O4S2/c17-13(18)8-3-1-4-9(7-8)16-22(19,20)11-6-2-5-10-12(11)15-21-14-10/h1-7,14-18H

> <Ligand InChI Key>
XNEAXFNIJJJMBK-UHFFFAOYSA-N

> <BindingDB MonomerID>
39827

> <BindingDB Ligand Name>
Amide and sulfonamide derivatives, 12

> <Target Name>
Beta-lactamase

> <Target Source Organism According to Curator or DataSource>
Escherichia coli

> <Ki (nM)>
 1.6e+3

> <IC50 (nM)>


> <Kd (nM)>


> <EC50 (nM)>


> <kon (M-1-s-1)>


> <koff (s-1)>


> <pH>
7

> <Temp C>


> <Curation/DataSource>
Curated from the literature by BindingDB

> <Article DOI>
10.1016/S1074-5521(01)00034-5

> <BindingDB Entry DOI>
10.7270/Q27M06BZ

> <PMID>
11410378

> <PubChem AID>
aid1799472

> <Patent Number>


> <Authors>
Tondi, D; Powers, RA; Caselli, E; Negri, MC; Bl&aacute;zquez, J; Costi, MP; Shoichet, BK

> <Institution>
Northwestern University

> <Link to Ligand in BindingDB>
http://www.bindingdb.org/bind/chemsearch/marvin/MolStructure.jsp?monomerid=39827

> <Link to Ligand-Target Pair in BindingDB>
http://www.bindingdb.org/jsp/dbsearch/PrimarySearch_ki.jsp?energyterm=kJ/mole&tag=pol&polymerid=4401&target=Beta-lactamase&column=ki&startPg=0&Increment=50&submit=Search

> <Link to Ligand-Target Pair in BindingDB>
http://www.bindingdb.org/jsp/dbsearch/PrimarySearch_ki.jsp?energyterm=kJ/mole&tag=r21&monomerid=39827&enzyme=Beta-lactamase&column=ki&startPg=0&Increment=50&submit=Search

> <Ligand HET ID in PDB>


> <PDB ID(s) for Ligand-Target Complex>


> <PubChem CID of Ligand>
52939998

> <PubChem SID of Ligand>
123080135

> <ChEBI ID of Ligand>


> <ChEMBL ID of Ligand>


> <DrugBank ID of Ligand>


> <IUPHAR_GRAC ID of Ligand>


> <KEGG ID of Ligand>


> <ZINC ID of Ligand>


> <Number of Protein Chains in Target (bigger than 1 implies a multichain complex)>
1

> <BindingDB Target Chain Sequence>
MFKTTLCALLITASCSTFAAPQQINDIVHRTITPLIEQQKIPGMAVAVIYQGKPYYFTWGYADIAKKQPVTQQTLFELGSVSKTFTGVLGGDAIARGEIKLSDPTTKYWPELTAKQWNGITLLHLATYTAGGLPLQVPDEVKSSSDLLRFYQNWQPAWAPGTQRLYANSSIGLFGALAVKPSGLSFEQAMQTRVFQPLKLNHTWINVPPAEEKNYAWGYREGKAVHVSPGALDAEAYGVKSTIEDMARWVQSNLKPLDINEKTLQQGIQLAQSRYWQTGDMYQGLGWEMLDWPVNPDSIINGSDNKIALAARPVKAITPPTPAVRASWVHKTGATGGFGSYVAFIPEKELGIVMLANKNYPNPARVDAAWQILNALQ

> <PDB ID(s) of Target Chain>
1C3B,1FCO,1FSW,1FSY,1GA9,1IEL,1IEM,1KDS,1KDW,1KE0,1KE3,1KE4,1KVM,1L2S,1LL5,1LL9,1LLB,1MXO,1MY8,1XGI,1XGJ,2BLS,2HDQ,2HDR,2HDS,2HDU,2I72,2P9V,2PU2,2PU4,2R9W,2R9X,2RCX,3BLS,3BM6,3GQZ,3GR2,3GRJ,3GSG,3GTC,3GV9,3GVB,3O86,3O87,3O88,4E3I,4E3J,4E3K,4E3L,4E3M,4E3N,4E3O,4JXG,4JXS,4JXV,4JXW,4KG2,4KZ3,4KZ4,4KZ5,4KZ6,4KZ7,4KZ8,4KZ9,4KZA,4KZB,4LV0,4LV1,4LV2,4LV3,4OKP,4OLD,4OLG,6DPT,6DPX,6DPY,6DPZ,6T35,6T3D,6T5Y,6T7L,6TBW,6TPM,6WGQ,6YEN,6YEO,6YPD

> <UniProt (SwissProt) Recommended Name of Target Chain>
Beta-lactamase

> <UniProt (SwissProt) Entry Name of Target Chain>
AMPC_ECOLI

> <UniProt (SwissProt) Primary ID of Target Chain>
P00811

> <UniProt (SwissProt) Secondary ID(s) of Target Chain>
Q2M6F2

> <UniProt (SwissProt) Alternative ID(s) of Target Chain>


> <UniProt (TrEMBL) Submitted Name of Target Chain>


> <UniProt (TrEMBL) Entry Name of Target Chain>


> <UniProt (TrEMBL) Primary ID of Target Chain>


> <UniProt (TrEMBL) Secondary ID(s) of Target Chain>


> <UniProt (TrEMBL) Alternative ID(s) of Target Chain>


$$$$

  Mrv0541 11191401012D          

 21 23  0  0  0  0            999 V2000
   -0.7396    1.4778    0.0000 C   0  0  0  0  0  0  0  0  0  0  0  0
   -1.5646    1.4778    0.0000 C   0  0  0  0  0  0  0  0  0  0  0  0
   -1.9771    2.1922    0.0000 C   0  0  0  0  0  0  0  0  0  0  0  0
   -1.5646    2.9067    0.0000 C   0  0  0  0  0  0  0  0  0  0  0  0
   -0.7396    2.9067    0.0000 C   0  0  0  0  0  0  0  0  0  0  0  0
   -0.3271    2.1922    0.0000 C   0  0  0  0  0  0  0  0  0  0  0  0
   -1.9771    3.6212    0.0000 B   0  0  0  0  0  0  0  0  0  0  0  0
   -2.8021    3.6212    0.0000 O   0  0  0  0  0  0  0  0  0  0  0  0
   -1.5646    4.3356    0.0000 O   0  0  0  0  0  0  0  0  0  0  0  0
    0.4979    2.1922    0.0000 N   0  0  0  0  0  0  0  0  0  0  0  0
    0.9104    1.4778    0.0000 C   0  0  0  0  0  0  0  0  0  0  0  0
    0.4979    0.7633    0.0000 O   0  0  0  0  0  0  0  0  0  0  0  0
    1.7354    0.9991    0.0000 C   0  0  0  0  0  0  0  0  0  0  0  0
    1.3999    0.2454    0.0000 C   0  0  0  0  0  0  0  0  0  0  0  0
    2.0129   -0.3066    0.0000 C   0  0  0  0  0  0  0  0  0  0  0  0
    2.7274    0.1059    0.0000 C   0  0  0  0  0  0  0  0  0  0  0  0
    2.5559    0.9129    0.0000 S   0  0  0  0  0  0  0  0  0  0  0  0
    2.0129   -1.1316    0.0000 C   0  0  0  0  0  0  0  0  0  0  0  0
    2.7274   -1.5441    0.0000 C   0  0  0  0  0  0  0  0  0  0  0  0
    3.4418   -1.1316    0.0000 C   0  0  0  0  0  0  0  0  0  0  0  0
    3.4419   -0.3066    0.0000 C   0  0  0  0  0  0  0  0  0  0  0  0
  1  2  2  0  0  0  0
  2  3  1  0  0  0  0
  3  4  2  0  0  0  0
  4  5  1  0  0  0  0
  5  6  2  0  0  0  0
  1  6  1  0  0  0  0
  4  7  1  0  0  0  0
  7  8  1  0  0  0  0
  7  9  1  0  0  0  0
  6 10  1  0  0  0  0
 10 11  1  0  0  0  0
 11 12  2  0  0  0  0
 13 14  2  0  0  0  0
 13 17  1  0  0  0  0
 14 15  1  0  0  0  0
 16 17  1  0  0  0  0
 16 21  2  0  0  0  0
 16 15  1  0  0  0  0
 15 18  2  0  0  0  0
 18 19  1  0  0  0  0
 19 20  2  0  0  0  0
 20 21  1  0  0  0  0
 11 13  1  0  0  0  0
M  END
> <From>
www.bindingDB.org

> <BindingDB Reactant_set_id>
74813

> <Ligand InChI>
InChI=1S/C15H12BNO3S/c18-15(14-8-10-4-1-2-7-13(10)21-14)17-12-6-3-5-11(9-12)16(19)20/h1-9,19-20H,(H,17,18)

> <Ligand InChI Key>
PZHAXBKJQIPPDO-UHFFFAOYSA-N

> <BindingDB MonomerID>
39830

> <BindingDB Ligand Name>
Amide and sulfonamide derivatives, 11

> <Target Name>
Beta-lactamase

> <Target Source Organism According to Curator or DataSource>
Escherichia coli

> <Ki (nM)>
 1.6e+3

> <IC50 (nM)>


> <Kd (nM)>


> <EC50 (nM)>


> <kon (M-1-s-1)>


> <koff (s-1)>


> <pH>
7

> <Temp C>


> <Curation/DataSource>
Curated from the literature by BindingDB

> <Article DOI>
10.1016/S1074-5521(01)00034-5

> <BindingDB Entry DOI>
10.7270/Q27M06BZ

> <PMID>
11410378

> <PubChem AID>
aid1799472

> <Patent Number>


> <Authors>
Tondi, D; Powers, RA; Caselli, E; Negri, MC; Bl&aacute;zquez, J; Costi, MP; Shoichet, BK

> <Institution>
Northwestern University

> <Link to Ligand in BindingDB>
http://www.bindingdb.org/bind/chemsearch/marvin/MolStructure.jsp?monomerid=39830

> <Link to Ligand-Target Pair in BindingDB>
http://www.bindingdb.org/jsp/dbsearch/PrimarySearch_ki.jsp?energyterm=kJ/mole&tag=pol&polymerid=4401&target=Beta-lactamase&column=ki&startPg=0&Increment=50&submit=Search

> <Link to Ligand-Target Pair in BindingDB>
http://www.bindingdb.org/jsp/dbsearch/PrimarySearch_ki.jsp?energyterm=kJ/mole&tag=r21&monomerid=39830&enzyme=Beta-lactamase&column=ki&startPg=0&Increment=50&submit=Search

> <Ligand HET ID in PDB>


> <PDB ID(s) for Ligand-Target Complex>


> <PubChem CID of Ligand>
52939999

> <PubChem SID of Ligand>
123080138

> <ChEBI ID of Ligand>


> <ChEMBL ID of Ligand>


> <DrugBank ID of Ligand>


> <IUPHAR_GRAC ID of Ligand>


> <KEGG ID of Ligand>


> <ZINC ID of Ligand>


> <Number of Protein Chains in Target (bigger than 1 implies a multichain complex)>
1

> <BindingDB Target Chain Sequence>
MFKTTLCALLITASCSTFAAPQQINDIVHRTITPLIEQQKIPGMAVAVIYQGKPYYFTWGYADIAKKQPVTQQTLFELGSVSKTFTGVLGGDAIARGEIKLSDPTTKYWPELTAKQWNGITLLHLATYTAGGLPLQVPDEVKSSSDLLRFYQNWQPAWAPGTQRLYANSSIGLFGALAVKPSGLSFEQAMQTRVFQPLKLNHTWINVPPAEEKNYAWGYREGKAVHVSPGALDAEAYGVKSTIEDMARWVQSNLKPLDINEKTLQQGIQLAQSRYWQTGDMYQGLGWEMLDWPVNPDSIINGSDNKIALAARPVKAITPPTPAVRASWVHKTGATGGFGSYVAFIPEKELGIVMLANKNYPNPARVDAAWQILNALQ

> <PDB ID(s) of Target Chain>
1C3B,1FCO,1FSW,1FSY,1GA9,1IEL,1IEM,1KDS,1KDW,1KE0,1KE3,1KE4,1KVM,1L2S,1LL5,1LL9,1LLB,1MXO,1MY8,1XGI,1XGJ,2BLS,2HDQ,2HDR,2HDS,2HDU,2I72,2P9V,2PU2,2PU4,2R9W,2R9X,2RCX,3BLS,3BM6,3GQZ,3GR2,3GRJ,3GSG,3GTC,3GV9,3GVB,3O86,3O87,3O88,4E3I,4E3J,4E3K,4E3L,4E3M,4E3N,4E3O,4JXG,4JXS,4JXV,4JXW,4KG2,4KZ3,4KZ4,4KZ5,4KZ6,4KZ7,4KZ8,4KZ9,4KZA,4KZB,4LV0,4LV1,4LV2,4LV3,4OKP,4OLD,4OLG,6DPT,6DPX,6DPY,6DPZ,6T35,6T3D,6T5Y,6T7L,6TBW,6TPM,6WGQ,6YEN,6YEO,6YPD

> <UniProt (SwissProt) Recommended Name of Target Chain>
Beta-lactamase

> <UniProt (SwissProt) Entry Name of Target Chain>
AMPC_ECOLI

> <UniProt (SwissProt) Primary ID of Target Chain>
P00811

> <UniProt (SwissProt) Secondary ID(s) of Target Chain>
Q2M6F2

> <UniProt (SwissProt) Alternative ID(s) of Target Chain>


> <UniProt (TrEMBL) Submitted Name of Target Chain>


> <UniProt (TrEMBL) Entry Name of Target Chain>


> <UniProt (TrEMBL) Primary ID of Target Chain>


> <UniProt (TrEMBL) Secondary ID(s) of Target Chain>


> <UniProt (TrEMBL) Alternative ID(s) of Target Chain>


$$$$

  Mrv0541 11231401522D          

 12 12  0  0  0  0            999 V2000
   -2.4808   -1.5495    0.0000 N   0  3  0  0  0  0  0  0  0  0  0  0
   -2.4561   -0.7336    0.0000 C   0  0  0  0  0  0  0  0  0  0  0  0
   -0.9725    0.8613    0.0000 B   0  5  0  0  0  0  0  0  0  0  0  0
   -1.7267   -0.3462    0.0000 C   0  0  0  0  0  0  0  0  0  0  0  0
   -1.7019    0.4698    0.0000 C   0  0  0  0  0  0  0  0  0  0  0  0
   -3.2020   -1.9328    0.0000 O   0  5  0  0  0  0  0  0  0  0  0  0
   -1.7885   -1.9822    0.0000 O   0  0  0  0  0  0  0  0  0  0  0  0
   -0.9478    1.6690    0.0000 O   0  3  0  0  0  0  0  0  0  0  0  0
   -0.2802    0.4203    0.0000 O   0  0  0  0  0  0  0  0  0  0  0  0
   -3.1608   -0.2967    0.0000 C   0  0  0  0  0  0  0  0  0  0  0  0
   -2.3984    0.9149    0.0000 C   0  0  0  0  0  0  0  0  0  0  0  0
   -3.1237    0.5275    0.0000 C   0  0  0  0  0  0  0  0  0  0  0  0
  2  1  1  0  0  0  0
  3  5  1  0  0  0  0
  4  2  2  0  0  0  0
  5  4  1  0  0  0  0
  6  1  1  0  0  0  0
  7  1  2  0  0  0  0
  8  3  2  0  0  0  0
  9  3  1  0  0  0  0
 10  2  1  0  0  0  0
 11 12  1  0  0  0  0
 12 10  2  0  0  0  0
 11  5  2  0  0  0  0
M  CHG  4   1   1   3  -1   6  -1   8   1
M  END
> <From>
www.bindingDB.org

> <BindingDB Reactant_set_id>
50117291

> <Ligand InChI>
InChI=1S/C6H6BNO4/c9-7(10)5-2-1-3-6(4-5)8(11)12/h1-4,9-10H

> <Ligand InChI Key>
ZNRGSYUVFVNSAW-UHFFFAOYSA-N

> <BindingDB MonomerID>
50067887

> <BindingDB Ligand Name>
3-NITROPHENYLBORONIC ACID::3-Nitro-phenyl-1-dihydroxyborane::3-Nitrophenyl boronic acid::Boronic acid derivative::CHEMBL20945::m-nitophenyl boronic acid

> <Target Name>
Beta-lactamase

> <Target Source Organism According to Curator or DataSource>
Escherichia coli

> <Ki (nM)>
 1700

> <IC50 (nM)>


> <Kd (nM)>


> <EC50 (nM)>


> <kon (M-1-s-1)>


> <koff (s-1)>


> <pH>


> <Temp C>


> <Curation/DataSource>
ChEMBL

> <Article DOI>
10.1021/jm980343w

> <BindingDB Entry DOI>
10.7270/Q22N51FX

> <PMID>
9804697

> <PubChem AID>


> <Patent Number>


> <Authors>
Weston, GS; Blazquez, J; Baquero, F; Shoichet, BK

> <Institution>
Northwestern University Medical School

> <Link to Ligand in BindingDB>
http://www.bindingdb.org/bind/chemsearch/marvin/MolStructure.jsp?monomerid=50067887

> <Link to Ligand-Target Pair in BindingDB>
http://www.bindingdb.org/jsp/dbsearch/PrimarySearch_ki.jsp?energyterm=kJ/mole&tag=pol&polymerid=4401&target=Beta-lactamase&column=ki&startPg=0&Increment=50&submit=Search

> <Link to Ligand-Target Pair in BindingDB>
http://www.bindingdb.org/jsp/dbsearch/PrimarySearch_ki.jsp?energyterm=kJ/mole&tag=r21&monomerid=50067887&enzyme=Beta-lactamase&column=ki&startPg=0&Increment=50&submit=Search

> <Ligand HET ID in PDB>
NPB

> <PDB ID(s) for Ligand-Target Complex>
3RXX,1KDS

> <PubChem CID of Ligand>
1677

> <PubChem SID of Ligand>
103962313

> <ChEBI ID of Ligand>


> <ChEMBL ID of Ligand>
CHEMBL20945

> <DrugBank ID of Ligand>


> <IUPHAR_GRAC ID of Ligand>


> <KEGG ID of Ligand>


> <ZINC ID of Ligand>


> <Number of Protein Chains in Target (bigger than 1 implies a multichain complex)>
1

> <BindingDB Target Chain Sequence>
MFKTTLCALLITASCSTFAAPQQINDIVHRTITPLIEQQKIPGMAVAVIYQGKPYYFTWGYADIAKKQPVTQQTLFELGSVSKTFTGVLGGDAIARGEIKLSDPTTKYWPELTAKQWNGITLLHLATYTAGGLPLQVPDEVKSSSDLLRFYQNWQPAWAPGTQRLYANSSIGLFGALAVKPSGLSFEQAMQTRVFQPLKLNHTWINVPPAEEKNYAWGYREGKAVHVSPGALDAEAYGVKSTIEDMARWVQSNLKPLDINEKTLQQGIQLAQSRYWQTGDMYQGLGWEMLDWPVNPDSIINGSDNKIALAARPVKAITPPTPAVRASWVHKTGATGGFGSYVAFIPEKELGIVMLANKNYPNPARVDAAWQILNALQ

> <PDB ID(s) of Target Chain>
1C3B,1FCO,1FSW,1FSY,1GA9,1IEL,1IEM,1KDS,1KDW,1KE0,1KE3,1KE4,1KVM,1L2S,1LL5,1LL9,1LLB,1MXO,1MY8,1XGI,1XGJ,2BLS,2HDQ,2HDR,2HDS,2HDU,2I72,2P9V,2PU2,2PU4,2R9W,2R9X,2RCX,3BLS,3BM6,3GQZ,3GR2,3GRJ,3GSG,3GTC,3GV9,3GVB,3O86,3O87,3O88,4E3I,4E3J,4E3K,4E3L,4E3M,4E3N,4E3O,4JXG,4JXS,4JXV,4JXW,4KG2,4KZ3,4KZ4,4KZ5,4KZ6,4KZ7,4KZ8,4KZ9,4KZA,4KZB,4LV0,4LV1,4LV2,4LV3,4OKP,4OLD,4OLG,6DPT,6DPX,6DPY,6DPZ,6T35,6T3D,6T5Y,6T7L,6TBW,6TPM,6WGQ,6YEN,6YEO,6YPD

> <UniProt (SwissProt) Recommended Name of Target Chain>
Beta-lactamase

> <UniProt (SwissProt) Entry Name of Target Chain>
AMPC_ECOLI

> <UniProt (SwissProt) Primary ID of Target Chain>
P00811

> <UniProt (SwissProt) Secondary ID(s) of Target Chain>
Q2M6F2

> <UniProt (SwissProt) Alternative ID(s) of Target Chain>


> <UniProt (TrEMBL) Submitted Name of Target Chain>


> <UniProt (TrEMBL) Entry Name of Target Chain>


> <UniProt (TrEMBL) Primary ID of Target Chain>


> <UniProt (TrEMBL) Secondary ID(s) of Target Chain>


> <UniProt (TrEMBL) Alternative ID(s) of Target Chain>


$$$$

  Mrv0541 11231401522D          

 12 12  0  0  0  0            999 V2000
   -2.4808   -1.5495    0.0000 N   0  3  0  0  0  0  0  0  0  0  0  0
   -2.4561   -0.7336    0.0000 C   0  0  0  0  0  0  0  0  0  0  0  0
   -0.9725    0.8613    0.0000 B   0  5  0  0  0  0  0  0  0  0  0  0
   -1.7267   -0.3462    0.0000 C   0  0  0  0  0  0  0  0  0  0  0  0
   -1.7019    0.4698    0.0000 C   0  0  0  0  0  0  0  0  0  0  0  0
   -3.2020   -1.9328    0.0000 O   0  5  0  0  0  0  0  0  0  0  0  0
   -1.7885   -1.9822    0.0000 O   0  0  0  0  0  0  0  0  0  0  0  0
   -0.9478    1.6690    0.0000 O   0  3  0  0  0  0  0  0  0  0  0  0
   -0.2802    0.4203    0.0000 O   0  0  0  0  0  0  0  0  0  0  0  0
   -3.1608   -0.2967    0.0000 C   0  0  0  0  0  0  0  0  0  0  0  0
   -2.3984    0.9149    0.0000 C   0  0  0  0  0  0  0  0  0  0  0  0
   -3.1237    0.5275    0.0000 C   0  0  0  0  0  0  0  0  0  0  0  0
  2  1  1  0  0  0  0
  3  5  1  0  0  0  0
  4  2  2  0  0  0  0
  5  4  1  0  0  0  0
  6  1  1  0  0  0  0
  7  1  2  0  0  0  0
  8  3  2  0  0  0  0
  9  3  1  0  0  0  0
 10  2  1  0  0  0  0
 11 12  1  0  0  0  0
 12 10  2  0  0  0  0
 11  5  2  0  0  0  0
M  CHG  4   1   1   3  -1   6  -1   8   1
M  END
> <From>
www.bindingDB.org

> <BindingDB Reactant_set_id>
50209031

> <Ligand InChI>
InChI=1S/C6H6BNO4/c9-7(10)5-2-1-3-6(4-5)8(11)12/h1-4,9-10H

> <Ligand InChI Key>
ZNRGSYUVFVNSAW-UHFFFAOYSA-N

> <BindingDB MonomerID>
50067887

> <BindingDB Ligand Name>
3-NITROPHENYLBORONIC ACID::3-Nitro-phenyl-1-dihydroxyborane::3-Nitrophenyl boronic acid::Boronic acid derivative::CHEMBL20945::m-nitophenyl boronic acid

> <Target Name>
Beta-lactamase

> <Target Source Organism According to Curator or DataSource>
Escherichia coli

> <Ki (nM)>
 1700

> <IC50 (nM)>


> <Kd (nM)>


> <EC50 (nM)>


> <kon (M-1-s-1)>


> <koff (s-1)>


> <pH>


> <Temp C>


> <Curation/DataSource>
ChEMBL

> <Article DOI>
10.1021/jm020002p

> <BindingDB Entry DOI>
10.7270/Q2CN737M

> <PMID>
12109906

> <PubChem AID>


> <Patent Number>


> <Authors>
Powers, RA; Shoichet, BK

> <Institution>
Northwestern University

> <Link to Ligand in BindingDB>
http://www.bindingdb.org/bind/chemsearch/marvin/MolStructure.jsp?monomerid=50067887

> <Link to Ligand-Target Pair in BindingDB>
http://www.bindingdb.org/jsp/dbsearch/PrimarySearch_ki.jsp?energyterm=kJ/mole&tag=pol&polymerid=4401&target=Beta-lactamase&column=ki&startPg=0&Increment=50&submit=Search

> <Link to Ligand-Target Pair in BindingDB>
http://www.bindingdb.org/jsp/dbsearch/PrimarySearch_ki.jsp?energyterm=kJ/mole&tag=r21&monomerid=50067887&enzyme=Beta-lactamase&column=ki&startPg=0&Increment=50&submit=Search

> <Ligand HET ID in PDB>
NPB

> <PDB ID(s) for Ligand-Target Complex>
3RXX,1KDS

> <PubChem CID of Ligand>
1677

> <PubChem SID of Ligand>
103962313

> <ChEBI ID of Ligand>


> <ChEMBL ID of Ligand>
CHEMBL20945

> <DrugBank ID of Ligand>


> <IUPHAR_GRAC ID of Ligand>


> <KEGG ID of Ligand>


> <ZINC ID of Ligand>


> <Number of Protein Chains in Target (bigger than 1 implies a multichain complex)>
1

> <BindingDB Target Chain Sequence>
MFKTTLCALLITASCSTFAAPQQINDIVHRTITPLIEQQKIPGMAVAVIYQGKPYYFTWGYADIAKKQPVTQQTLFELGSVSKTFTGVLGGDAIARGEIKLSDPTTKYWPELTAKQWNGITLLHLATYTAGGLPLQVPDEVKSSSDLLRFYQNWQPAWAPGTQRLYANSSIGLFGALAVKPSGLSFEQAMQTRVFQPLKLNHTWINVPPAEEKNYAWGYREGKAVHVSPGALDAEAYGVKSTIEDMARWVQSNLKPLDINEKTLQQGIQLAQSRYWQTGDMYQGLGWEMLDWPVNPDSIINGSDNKIALAARPVKAITPPTPAVRASWVHKTGATGGFGSYVAFIPEKELGIVMLANKNYPNPARVDAAWQILNALQ

> <PDB ID(s) of Target Chain>
1C3B,1FCO,1FSW,1FSY,1GA9,1IEL,1IEM,1KDS,1KDW,1KE0,1KE3,1KE4,1KVM,1L2S,1LL5,1LL9,1LLB,1MXO,1MY8,1XGI,1XGJ,2BLS,2HDQ,2HDR,2HDS,2HDU,2I72,2P9V,2PU2,2PU4,2R9W,2R9X,2RCX,3BLS,3BM6,3GQZ,3GR2,3GRJ,3GSG,3GTC,3GV9,3GVB,3O86,3O87,3O88,4E3I,4E3J,4E3K,4E3L,4E3M,4E3N,4E3O,4JXG,4JXS,4JXV,4JXW,4KG2,4KZ3,4KZ4,4KZ5,4KZ6,4KZ7,4KZ8,4KZ9,4KZA,4KZB,4LV0,4LV1,4LV2,4LV3,4OKP,4OLD,4OLG,6DPT,6DPX,6DPY,6DPZ,6T35,6T3D,6T5Y,6T7L,6TBW,6TPM,6WGQ,6YEN,6YEO,6YPD

> <UniProt (SwissProt) Recommended Name of Target Chain>
Beta-lactamase

> <UniProt (SwissProt) Entry Name of Target Chain>
AMPC_ECOLI

> <UniProt (SwissProt) Primary ID of Target Chain>
P00811

> <UniProt (SwissProt) Secondary ID(s) of Target Chain>
Q2M6F2

> <UniProt (SwissProt) Alternative ID(s) of Target Chain>


> <UniProt (TrEMBL) Submitted Name of Target Chain>


> <UniProt (TrEMBL) Entry Name of Target Chain>


> <UniProt (TrEMBL) Primary ID of Target Chain>


> <UniProt (TrEMBL) Secondary ID(s) of Target Chain>


> <UniProt (TrEMBL) Alternative ID(s) of Target Chain>


$$$$

  Mrv0541 11211416132D          

 31 34  0  0  0  0            999 V2000
    2.5405    1.1828    0.0000 C   0  0  0  0  0  0  0  0  0  0  0  0
    1.8284    0.7622    0.0000 N   0  0  0  0  0  0  0  0  0  0  0  0
   -1.7200   -0.5040    0.0000 N   0  0  0  0  0  0  0  0  0  0  0  0
   -3.8440   -2.5738    0.0000 B   0  0  0  0  0  0  0  0  0  0  0  0
   -1.0203   -0.0875    0.0000 C   0  0  0  0  0  0  0  0  0  0  0  0
    3.2652    0.7704    0.0000 C   0  0  0  0  0  0  0  0  0  0  0  0
    1.1162    1.1703    0.0000 N   0  0  0  0  0  0  0  0  0  0  0  0
   -2.4447   -0.0917    0.0000 N   0  0  0  0  0  0  0  0  0  0  0  0
   -3.8690   -1.7492    0.0000 C   0  0  0  0  0  0  0  0  0  0  0  0
   -0.2957   -0.4915    0.0000 C   0  0  0  0  0  0  0  0  0  0  0  0
    0.4040   -0.0750    0.0000 C   0  0  0  0  0  0  0  0  0  0  0  0
   -3.1569   -1.3369    0.0000 C   0  0  0  0  0  0  0  0  0  0  0  0
    2.5405    1.9991    0.0000 C   0  0  0  0  0  0  0  0  0  0  0  0
    0.4040    0.7497    0.0000 C   0  0  0  0  0  0  0  0  0  0  0  0
    3.9649    1.1870    0.0000 C   0  0  0  0  0  0  0  0  0  0  0  0
   -3.1569   -0.5123    0.0000 C   0  0  0  0  0  0  0  0  0  0  0  0
   -1.0203    0.7372    0.0000 C   0  0  0  0  0  0  0  0  0  0  0  0
    3.2402    2.4197    0.0000 C   0  0  0  0  0  0  0  0  0  0  0  0
    3.9649    2.0199    0.0000 C   0  0  0  0  0  0  0  0  0  0  0  0
   -4.5562   -2.9986    0.0000 O   0  0  0  0  0  0  0  0  0  0  0  0
   -3.1194   -2.9778    0.0000 O   0  0  0  0  0  0  0  0  0  0  0  0
   -0.2957   -1.3119    0.0000 O   0  0  0  0  0  0  0  0  0  0  0  0
   -0.3207    1.1578    0.0000 C   0  0  0  0  0  0  0  0  0  0  0  0
    1.8159    2.4114    0.0000 O   0  0  0  0  0  0  0  0  0  0  0  0
   -4.5937   -1.3494    0.0000 C   0  0  0  0  0  0  0  0  0  0  0  0
    3.2652   -0.0542    0.0000 C   0  0  0  0  0  0  0  0  0  0  0  0
   -4.5937   -0.5248    0.0000 C   0  0  0  0  0  0  0  0  0  0  0  0
   -3.8815   -0.0917    0.0000 C   0  0  0  0  0  0  0  0  0  0  0  0
    4.6895    0.7871    0.0000 C   0  0  0  0  0  0  0  0  0  0  0  0
    3.9899   -0.4623    0.0000 C   0  0  0  0  0  0  0  0  0  0  0  0
    4.7020   -0.0292    0.0000 C   0  0  0  0  0  0  0  0  0  0  0  0
  2  1  1  0  0  0  0
  3  5  1  0  0  0  0
  4  9  1  0  0  0  0
  5 17  2  0  0  0  0
  6  1  2  0  0  0  0
  7  2  2  0  0  0  0
  8  3  2  0  0  0  0
  9 12  2  0  0  0  0
 10 11  2  0  0  0  0
 11 14  1  0  0  0  0
 12 16  1  0  0  0  0
 13  1  1  0  0  0  0
  7 14  1  4  0  0  0
 15  6  1  0  0  0  0
  8 16  1  4  0  0  0
 17 23  1  0  0  0  0
 18 13  2  0  0  0  0
 19 18  1  0  0  0  0
 20  4  1  0  0  0  0
 21  4  1  0  0  0  0
 22 10  1  0  0  0  0
 23 14  2  0  0  0  0
 24 13  1  0  0  0  0
 25 27  2  0  0  0  0
 26  6  1  0  0  0  0
 27 28  1  0  0  0  0
 28 16  2  0  0  0  0
 29 15  1  0  0  0  0
 30 26  2  0  0  0  0
 31 30  1  0  0  0  0
 15 19  2  0  0  0  0
 29 31  2  0  0  0  0
 10  5  1  0  0  0  0
  9 25  1  0  0  0  0
M  END
> <From>
www.bindingDB.org

> <BindingDB Reactant_set_id>
50275072

> <Ligand InChI>
InChI=1S/C22H17BN4O4/c28-20-11-8-14-4-1-2-7-18(14)22(20)27-25-17-9-10-19(21(29)13-17)26-24-16-6-3-5-15(12-16)23(30)31/h1-13,28-31H

> <Ligand InChI Key>
RJBIHGZOBGHWNV-UHFFFAOYSA-N

> <BindingDB MonomerID>
50149789

> <BindingDB Ligand Name>
Aza-boronic acid derivative::CHEMBL180481

> <Target Name>
Beta-lactamase

> <Target Source Organism According to Curator or DataSource>
Escherichia coli

> <Ki (nM)>
 1800

> <IC50 (nM)>


> <Kd (nM)>


> <EC50 (nM)>


> <kon (M-1-s-1)>


> <koff (s-1)>


> <pH>


> <Temp C>


> <Curation/DataSource>
ChEMBL

> <Article DOI>
10.1016/j.bmcl.2004.05.054

> <BindingDB Entry DOI>
10.7270/Q2XW4J8P

> <PMID>
15225711

> <PubChem AID>


> <Patent Number>


> <Authors>
Buzzoni, V; Blazquez, J; Ferrari, S; Calo, S; Venturelli, A; Costi, MP

> <Institution>
Universit&#224; degli Studi di Modena e Reggio Emilia

> <Link to Ligand in BindingDB>
http://www.bindingdb.org/bind/chemsearch/marvin/MolStructure.jsp?monomerid=50149789

> <Link to Ligand-Target Pair in BindingDB>
http://www.bindingdb.org/jsp/dbsearch/PrimarySearch_ki.jsp?energyterm=kJ/mole&tag=pol&polymerid=4401&target=Beta-lactamase&column=ki&startPg=0&Increment=50&submit=Search

> <Link to Ligand-Target Pair in BindingDB>
http://www.bindingdb.org/jsp/dbsearch/PrimarySearch_ki.jsp?energyterm=kJ/mole&tag=r21&monomerid=50149789&enzyme=Beta-lactamase&column=ki&startPg=0&Increment=50&submit=Search

> <Ligand HET ID in PDB>


> <PDB ID(s) for Ligand-Target Complex>


> <PubChem CID of Ligand>
44392790

> <PubChem SID of Ligand>
104037864

> <ChEBI ID of Ligand>


> <ChEMBL ID of Ligand>
CHEMBL180481

> <DrugBank ID of Ligand>


> <IUPHAR_GRAC ID of Ligand>


> <KEGG ID of Ligand>


> <ZINC ID of Ligand>


> <Number of Protein Chains in Target (bigger than 1 implies a multichain complex)>
1

> <BindingDB Target Chain Sequence>
MFKTTLCALLITASCSTFAAPQQINDIVHRTITPLIEQQKIPGMAVAVIYQGKPYYFTWGYADIAKKQPVTQQTLFELGSVSKTFTGVLGGDAIARGEIKLSDPTTKYWPELTAKQWNGITLLHLATYTAGGLPLQVPDEVKSSSDLLRFYQNWQPAWAPGTQRLYANSSIGLFGALAVKPSGLSFEQAMQTRVFQPLKLNHTWINVPPAEEKNYAWGYREGKAVHVSPGALDAEAYGVKSTIEDMARWVQSNLKPLDINEKTLQQGIQLAQSRYWQTGDMYQGLGWEMLDWPVNPDSIINGSDNKIALAARPVKAITPPTPAVRASWVHKTGATGGFGSYVAFIPEKELGIVMLANKNYPNPARVDAAWQILNALQ

> <PDB ID(s) of Target Chain>
1C3B,1FCO,1FSW,1FSY,1GA9,1IEL,1IEM,1KDS,1KDW,1KE0,1KE3,1KE4,1KVM,1L2S,1LL5,1LL9,1LLB,1MXO,1MY8,1XGI,1XGJ,2BLS,2HDQ,2HDR,2HDS,2HDU,2I72,2P9V,2PU2,2PU4,2R9W,2R9X,2RCX,3BLS,3BM6,3GQZ,3GR2,3GRJ,3GSG,3GTC,3GV9,3GVB,3O86,3O87,3O88,4E3I,4E3J,4E3K,4E3L,4E3M,4E3N,4E3O,4JXG,4JXS,4JXV,4JXW,4KG2,4KZ3,4KZ4,4KZ5,4KZ6,4KZ7,4KZ8,4KZ9,4KZA,4KZB,4LV0,4LV1,4LV2,4LV3,4OKP,4OLD,4OLG,6DPT,6DPX,6DPY,6DPZ,6T35,6T3D,6T5Y,6T7L,6TBW,6TPM,6WGQ,6YEN,6YEO,6YPD

> <UniProt (SwissProt) Recommended Name of Target Chain>
Beta-lactamase

> <UniProt (SwissProt) Entry Name of Target Chain>
AMPC_ECOLI

> <UniProt (SwissProt) Primary ID of Target Chain>
P00811

> <UniProt (SwissProt) Secondary ID(s) of Target Chain>
Q2M6F2

> <UniProt (SwissProt) Alternative ID(s) of Target Chain>


> <UniProt (TrEMBL) Submitted Name of Target Chain>


> <UniProt (TrEMBL) Entry Name of Target Chain>


> <UniProt (TrEMBL) Primary ID of Target Chain>


> <UniProt (TrEMBL) Secondary ID(s) of Target Chain>


> <UniProt (TrEMBL) Alternative ID(s) of Target Chain>


$$$$

  SciTegic04181614082D

 25 27  0  0  0  0            999 V2000
    2.7343   -2.9815    0.0000 N   0  0
    4.2010   -3.2956    0.0000 N   0  0
    4.9531   -1.9978    0.0000 C   0  0
    3.9511   -0.8815    0.0000 N   0  0
    2.5987   -1.5004    0.0000 C   0  0
    6.4430   -1.8404    0.0000 S   0  0
    7.0537   -0.4695    0.0000 C   0  0
    8.5462   -0.3118    0.0000 C   0  0
    9.1568    1.0592    0.0000 N   0  0
    9.2517   -1.2825    0.0000 O   0  0
   10.6493    1.2168    0.0000 C   0  0
    1.2990   -0.7500    0.0000 C   0  0
    1.2990    0.7500    0.0000 C   0  0
    0.0000    1.5000    0.0000 C   0  0
   -1.2990    0.7500    0.0000 C   0  0
   -1.2990   -0.7500    0.0000 C   0  0
    0.0000   -1.5000    0.0000 C   0  0
    2.5972    1.5031    0.0000 C   0  0
    3.6375    0.9049    0.0000 O   0  0
    2.5955    2.7031    0.0000 O   0  0
   11.2616    2.5861    0.0000 C   0  0
   12.7537    2.7406    0.0000 C   0  0
   13.6335    1.5258    0.0000 C   0  0
   13.0213    0.1564    0.0000 C   0  0
   11.5292    0.0019    0.0000 C   0  0
  1  2  1  0
  2  3  2  0
  3  4  1  0
  4  5  1  0
  5  1  2  0
  3  6  1  0
  6  7  1  0
  7  8  1  0
  8  9  1  0
  8 10  2  0
  9 11  1  0
 12 13  2  0
 13 14  1  0
 14 15  2  0
 15 16  1  0
 16 17  2  0
 17 12  1  0
  5 12  1  0
 18 19  1  0
 18 20  2  0
 13 18  1  0
 11 21  2  0
 21 22  1  0
 22 23  2  0
 23 24  1  0
 24 25  2  0
 25 11  1  0
M  END
> <From>
www.bindingDB.org

> <BindingDB Reactant_set_id>
50342711

> <Ligand InChI>
InChI=1S/C17H14N4O3S/c22-14(18-11-6-2-1-3-7-11)10-25-17-19-15(20-21-17)12-8-4-5-9-13(12)16(23)24/h1-9H,10H2,(H,18,22)(H,23,24)(H,19,20,21)

> <Ligand InChI Key>
QKJSCJMJRUXEEC-UHFFFAOYSA-N

> <BindingDB MonomerID>
50089388

> <BindingDB Ligand Name>
CHEMBL3577961

> <Target Name>
Beta-lactamase

> <Target Source Organism According to Curator or DataSource>


> <Ki (nM)>
 1800

> <IC50 (nM)>


> <Kd (nM)>


> <EC50 (nM)>


> <kon (M-1-s-1)>


> <koff (s-1)>


> <pH>


> <Temp C>


> <Curation/DataSource>
ChEMBL

> <Article DOI>
10.1021/ml500534c

> <BindingDB Entry DOI>
10.7270/Q2XP76P0

> <PMID>
25893049

> <PubChem AID>


> <Patent Number>


> <Authors>
Yang, SK; Kang, JS; Oelschlaeger, P; Yang, KW

> <Institution>
North-West University

> <Link to Ligand in BindingDB>
http://www.bindingdb.org/bind/chemsearch/marvin/MolStructure.jsp?monomerid=50089388

> <Link to Ligand-Target Pair in BindingDB>
http://www.bindingdb.org/jsp/dbsearch/PrimarySearch_ki.jsp?energyterm=kJ/mole&tag=pol&polymerid=50006888&target=Beta-lactamase&column=ki&startPg=0&Increment=50&submit=Search

> <Link to Ligand-Target Pair in BindingDB>
http://www.bindingdb.org/jsp/dbsearch/PrimarySearch_ki.jsp?energyterm=kJ/mole&tag=r21&monomerid=50089388&enzyme=Beta-lactamase&column=ki&startPg=0&Increment=50&submit=Search

> <Ligand HET ID in PDB>


> <PDB ID(s) for Ligand-Target Complex>


> <PubChem CID of Ligand>
122178131

> <PubChem SID of Ligand>
103988177

> <ChEBI ID of Ligand>


> <ChEMBL ID of Ligand>
CHEMBL3577961

> <DrugBank ID of Ligand>


> <IUPHAR_GRAC ID of Ligand>


> <KEGG ID of Ligand>


> <ZINC ID of Ligand>
ZINC26502461

> <Number of Protein Chains in Target (bigger than 1 implies a multichain complex)>
1

> <BindingDB Target Chain Sequence>
MMKGWIKCGLAGAVVLMASFWGGSVRAAGMSLTQQVSGPVYVVEDNYYVQENSMVYFGAKGVTVVGATWTPDTARELHKLIKRVSRKPVLEVINTNYHTDRAGGNAYWKSIGAKVISTRQTRDLMKSDWAEIVAFTRKGLPEYPDLPLVLPNVVHEGDFTLQEGKLRAFYLGPAHSPDGIFVYFPDQQVLYGNCILKEKLGNLSFADVKAYPQTLERLKAMKLPIKTVVGGHDSPLHGPELIDHYEALIKAASQS

> <PDB ID(s) of Target Chain>


> <UniProt (SwissProt) Recommended Name of Target Chain>


> <UniProt (SwissProt) Entry Name of Target Chain>


> <UniProt (SwissProt) Primary ID of Target Chain>


> <UniProt (SwissProt) Secondary ID(s) of Target Chain>


> <UniProt (SwissProt) Alternative ID(s) of Target Chain>


> <UniProt (TrEMBL) Submitted Name of Target Chain>
Beta-lactamase

> <UniProt (TrEMBL) Entry Name of Target Chain>
O31272_AERVE

> <UniProt (TrEMBL) Primary ID of Target Chain>
O31272

> <UniProt (TrEMBL) Secondary ID(s) of Target Chain>


> <UniProt (TrEMBL) Alternative ID(s) of Target Chain>


$$$$

  SciTegic04181614082D

 28 30  0  0  0  0            999 V2000
    2.7343   -2.9815    0.0000 N   0  0
    4.2010   -3.2956    0.0000 N   0  0
    4.9531   -1.9978    0.0000 C   0  0
    3.9511   -0.8815    0.0000 N   0  0
    2.5987   -1.5004    0.0000 C   0  0
    6.4430   -1.8404    0.0000 S   0  0
    7.0537   -0.4695    0.0000 C   0  0
    8.5462   -0.3118    0.0000 C   0  0
    9.1568    1.0592    0.0000 N   0  0
    9.2517   -1.2825    0.0000 O   0  0
   10.6493    1.2168    0.0000 C   0  0
    1.2990   -0.7500    0.0000 C   0  0
    1.2990    0.7500    0.0000 C   0  0
    0.0000    1.5000    0.0000 C   0  0
   -1.2990    0.7500    0.0000 C   0  0
   -1.2990   -0.7500    0.0000 C   0  0
    0.0000   -1.5000    0.0000 C   0  0
    2.5972    1.5031    0.0000 C   0  0
    3.6375    0.9049    0.0000 O   0  0
    2.5955    2.7031    0.0000 O   0  0
   11.2616    2.5861    0.0000 C   0  0
   12.7537    2.7406    0.0000 C   0  0
   13.6335    1.5258    0.0000 C   0  0
   13.0213    0.1564    0.0000 C   0  0
   11.5292    0.0019    0.0000 C   0  0
   13.8991   -1.0610    0.0000 N   0  3
   13.4077   -2.1558    0.0000 O   0  0
   15.0929   -0.9395    0.0000 O   0  5
  1  2  1  0
  2  3  2  0
  3  4  1  0
  4  5  1  0
  5  1  2  0
  3  6  1  0
  6  7  1  0
  7  8  1  0
  8  9  1  0
  8 10  2  0
  9 11  1  0
 12 13  2  0
 13 14  1  0
 14 15  2  0
 15 16  1  0
 16 17  2  0
 17 12  1  0
  5 12  1  0
 18 19  1  0
 18 20  2  0
 13 18  1  0
 11 21  2  0
 21 22  1  0
 22 23  2  0
 23 24  1  0
 24 25  2  0
 25 11  1  0
 26 27  2  0
 26 28  1  0
 24 26  1  0
M  CHG  2  26   1  28  -1
M  END
> <From>
www.bindingDB.org

> <BindingDB Reactant_set_id>
50342716

> <Ligand InChI>
InChI=1S/C17H13N5O5S/c23-14(18-10-4-3-5-11(8-10)22(26)27)9-28-17-19-15(20-21-17)12-6-1-2-7-13(12)16(24)25/h1-8H,9H2,(H,18,23)(H,24,25)(H,19,20,21)

> <Ligand InChI Key>
SLOBRYKYHRELOU-UHFFFAOYSA-N

> <BindingDB MonomerID>
50089393

> <BindingDB Ligand Name>
CHEMBL3577970

> <Target Name>
Beta-lactamase

> <Target Source Organism According to Curator or DataSource>


> <Ki (nM)>
 1900

> <IC50 (nM)>


> <Kd (nM)>


> <EC50 (nM)>


> <kon (M-1-s-1)>


> <koff (s-1)>


> <pH>


> <Temp C>


> <Curation/DataSource>
ChEMBL

> <Article DOI>
10.1021/ml500534c

> <BindingDB Entry DOI>
10.7270/Q2XP76P0

> <PMID>
25893049

> <PubChem AID>


> <Patent Number>


> <Authors>
Yang, SK; Kang, JS; Oelschlaeger, P; Yang, KW

> <Institution>
North-West University

> <Link to Ligand in BindingDB>
http://www.bindingdb.org/bind/chemsearch/marvin/MolStructure.jsp?monomerid=50089393

> <Link to Ligand-Target Pair in BindingDB>
http://www.bindingdb.org/jsp/dbsearch/PrimarySearch_ki.jsp?energyterm=kJ/mole&tag=pol&polymerid=50006888&target=Beta-lactamase&column=ki&startPg=0&Increment=50&submit=Search

> <Link to Ligand-Target Pair in BindingDB>
http://www.bindingdb.org/jsp/dbsearch/PrimarySearch_ki.jsp?energyterm=kJ/mole&tag=r21&monomerid=50089393&enzyme=Beta-lactamase&column=ki&startPg=0&Increment=50&submit=Search

> <Ligand HET ID in PDB>


> <PDB ID(s) for Ligand-Target Complex>


> <PubChem CID of Ligand>
122178140

> <PubChem SID of Ligand>
103988182

> <ChEBI ID of Ligand>


> <ChEMBL ID of Ligand>
CHEMBL3577970

> <DrugBank ID of Ligand>


> <IUPHAR_GRAC ID of Ligand>


> <KEGG ID of Ligand>


> <ZINC ID of Ligand>
ZINC26496080

> <Number of Protein Chains in Target (bigger than 1 implies a multichain complex)>
1

> <BindingDB Target Chain Sequence>
MMKGWIKCGLAGAVVLMASFWGGSVRAAGMSLTQQVSGPVYVVEDNYYVQENSMVYFGAKGVTVVGATWTPDTARELHKLIKRVSRKPVLEVINTNYHTDRAGGNAYWKSIGAKVISTRQTRDLMKSDWAEIVAFTRKGLPEYPDLPLVLPNVVHEGDFTLQEGKLRAFYLGPAHSPDGIFVYFPDQQVLYGNCILKEKLGNLSFADVKAYPQTLERLKAMKLPIKTVVGGHDSPLHGPELIDHYEALIKAASQS

> <PDB ID(s) of Target Chain>


> <UniProt (SwissProt) Recommended Name of Target Chain>


> <UniProt (SwissProt) Entry Name of Target Chain>


> <UniProt (SwissProt) Primary ID of Target Chain>


> <UniProt (SwissProt) Secondary ID(s) of Target Chain>


> <UniProt (SwissProt) Alternative ID(s) of Target Chain>


> <UniProt (TrEMBL) Submitted Name of Target Chain>
Beta-lactamase

> <UniProt (TrEMBL) Entry Name of Target Chain>
O31272_AERVE

> <UniProt (TrEMBL) Primary ID of Target Chain>
O31272

> <UniProt (TrEMBL) Secondary ID(s) of Target Chain>


> <UniProt (TrEMBL) Alternative ID(s) of Target Chain>


$$$$
 
  Mrv0541 11221422532D          

 14 15  0  0  0  0            999 V2000
    8.4706   -2.8163    0.0000 C   0  0  1  0  0  0  0  0  0  0  0  0
    8.9602   -2.1521    0.0000 C   0  0  0  0  0  0  0  0  0  0  0  0
    8.4799   -1.4815    0.0000 O   0  0  0  0  0  0  0  0  0  0  0  0
    7.6878   -2.5558    0.0000 N   0  0  0  0  0  0  0  0  0  0  0  0
    7.6935   -1.7309    0.0000 C   0  0  1  0  0  0  0  0  0  0  0  0
    6.8686   -1.7252    0.0000 C   0  0  0  0  0  0  0  0  0  0  0  0
    6.8629   -2.5502    0.0000 C   0  0  0  0  0  0  0  0  0  0  0  0
    8.7201   -3.6027    0.0000 C   0  0  0  0  0  0  0  0  0  0  0  0
    8.1638   -4.2118    0.0000 O   0  0  0  0  0  0  0  0  0  0  0  0
    9.5258   -3.7798    0.0000 O   0  0  0  0  0  0  0  0  0  0  0  0
    9.7852   -2.1578    0.0000 C   0  0  0  0  0  0  0  0  0  0  0  0
    6.2755   -3.1294    0.0000 O   0  0  0  0  0  0  0  0  0  0  0  0
   10.2026   -1.4463    0.0000 C   0  0  0  0  0  0  0  0  0  0  0  0
   11.0275   -1.4519    0.0000 O   0  0  0  0  0  0  0  0  0  0  0  0
  7  4  1  0  0  0  0
  5  3  1  0  0  0  0
  1  8  1  6  0  0  0
  5  4  1  1  0  0  0
  8  9  2  0  0  0  0
  8 10  1  0  0  0  0
  1  4  1  0  0  0  0
  2 11  2  0  0  0  0
  1  2  1  0  0  0  0
  7 12  2  0  0  0  0
  2  3  1  0  0  0  0
  5  6  1  0  0  0  0
 11 13  1  0  0  0  0
  6  7  1  0  0  0  0
 13 14  1  0  0  0  0
M  END
> <From>
www.bindingDB.org

> <BindingDB Reactant_set_id>
293325

> <Ligand InChI>
InChI=1S/C8H9NO5/c10-2-1-4-7(8(12)13)9-5(11)3-6(9)14-4/h1,6-7,10H,2-3H2,(H,12,13)/b4-1-/t6-,7-/m1/s1

> <Ligand InChI Key>
HZZVJAQRINQKSD-PBFISZAISA-N

> <BindingDB MonomerID>
50021959

> <BindingDB Ligand Name>
CHEMBL777::MM 14151::US9120808, Clavulanic acid potassium salt::antibiotic MM 14151::clavulanic acid

> <Target Name>
Beta-lactamase SHV-1

> <Target Source Organism According to Curator or DataSource>


> <Ki (nM)>
 2.0e+3

> <IC50 (nM)>
 1e+2

> <Kd (nM)>


> <EC50 (nM)>


> <kon (M-1-s-1)>


> <koff (s-1)>


> <pH>
7.4

> <Temp C>


> <Curation/DataSource>
Curated from the literature by BindingDB

> <Article DOI>
10.1021/bi501197t

> <BindingDB Entry DOI>
10.7270/Q2736PNW

> <PMID>
25536850

> <PubChem AID>
aid1801066

> <Patent Number>


> <Authors>
Che, T; Rodkey, EA; Bethel, CR; Shanmugam, S; Ding, Z; Pusztai-Carey, M; Nottingham, M; Chai, W; Buynak, JD; Bonomo, RA; van den Akker, F; Carey, PR

> <Institution>
Case Western Reserve University

> <Link to Ligand in BindingDB>
http://www.bindingdb.org/bind/chemsearch/marvin/MolStructure.jsp?monomerid=50021959

> <Link to Ligand-Target Pair in BindingDB>
http://www.bindingdb.org/jsp/dbsearch/PrimarySearch_ki.jsp?energyterm=kJ/mole&tag=pol&polymerid=6997&target=Beta-lactamase+SHV-1&column=ki&startPg=0&Increment=50&submit=Search

> <Link to Ligand-Target Pair in BindingDB>
http://www.bindingdb.org/jsp/dbsearch/PrimarySearch_ki.jsp?energyterm=kJ/mole&tag=r21&monomerid=50021959&enzyme=Beta-lactamase+SHV-1&column=ki&startPg=0&Increment=50&submit=Search

> <Ligand HET ID in PDB>
J01

> <PDB ID(s) for Ligand-Target Complex>
6NVU,2XH9,2XF3,2XFS,6PQ8,2JAP

> <PubChem CID of Ligand>
5280980

> <PubChem SID of Ligand>
103932648

> <ChEBI ID of Ligand>
48947

> <ChEMBL ID of Ligand>
CHEMBL777

> <DrugBank ID of Ligand>
DB00766

> <IUPHAR_GRAC ID of Ligand>


> <KEGG ID of Ligand>
C06662

> <ZINC ID of Ligand>
ZINC03830569

> <Number of Protein Chains in Target (bigger than 1 implies a multichain complex)>
1

> <BindingDB Target Chain Sequence>
MRYIRLCIISLLATLPLAVHASPQPLEQIKLSESQLSGRVGMIEMDLASGRTLTAWRADERFPMMSTFKV
VLCGAVLARVDAGDEQLERKIHYRQQDLVDYSPVSEKHLADGMTVGELCAAAITMSDNSAANLLLATVGG
PAGLTAFLRQIGDNVTRLDRWETELNEALPGDARDTTTPASMAATLRKLLTSQRLSARSQRQLLQWMVDD
RVAGPLIRSVLPAGWFIADKTGAGERGARGIVALLGPNNKAERIVVIYLRDTPASMAERNQQIAGIGAAL
IEHWQR

> <PDB ID(s) of Target Chain>
1ONG,1Q2P,1SHV,1VM1,2G2U,2H5S,2ZD8,3C4O,3C4P,3D4F,3MKE,3MKF,3MXR,3MXS,4FH4,4GD6,4GD8,4GDB,4JPM,4MBF,4R3B,4ZAM,5EE8

> <UniProt (SwissProt) Recommended Name of Target Chain>
Beta-lactamase SHV-1

> <UniProt (SwissProt) Entry Name of Target Chain>
BLA1_KLEPN

> <UniProt (SwissProt) Primary ID of Target Chain>
P0AD64

> <UniProt (SwissProt) Secondary ID(s) of Target Chain>
O07941 P14557 P23982

> <UniProt (SwissProt) Alternative ID(s) of Target Chain>


> <UniProt (TrEMBL) Submitted Name of Target Chain>


> <UniProt (TrEMBL) Entry Name of Target Chain>


> <UniProt (TrEMBL) Primary ID of Target Chain>


> <UniProt (TrEMBL) Secondary ID(s) of Target Chain>


> <UniProt (TrEMBL) Alternative ID(s) of Target Chain>


$$$$

  Mrv0541 11211416132D          

 29 31  0  0  0  0            999 V2000
    1.1625    1.3833    0.0000 S   0  0  0  0  0  0  0  0  0  0  0  0
    1.1625    2.2083    0.0000 C   0  0  0  0  0  0  0  0  0  0  0  0
    0.0792    4.0417    0.0000 S   0  0  0  0  0  0  0  0  0  0  0  0
    0.6250    3.4208    0.0000 C   0  0  0  0  0  0  0  0  0  0  0  0
    0.4500    2.6083    0.0000 C   0  0  0  0  0  0  0  0  0  0  0  0
    1.4417    3.5000    0.0000 S   0  0  0  0  0  0  0  0  0  0  0  0
    1.7792    2.7708    0.0000 C   0  0  0  0  0  0  0  0  0  0  0  0
    1.1625    0.5500    0.0000 C   0  0  0  0  0  0  0  0  0  0  0  0
   -1.6958   -4.4167    0.0000 B   0  0  0  0  0  0  0  0  0  0  0  0
   -0.2583   -1.9292    0.0000 N   0  0  0  0  0  0  0  0  0  0  0  0
   -0.2625   -1.1000    0.0000 N   0  0  0  0  0  0  0  0  0  0  0  0
   -1.6958   -3.5917    0.0000 C   0  0  0  0  0  0  0  0  0  0  0  0
    0.4500    0.1458    0.0000 C   0  0  0  0  0  0  0  0  0  0  0  0
    0.3375    1.3833    0.0000 O   0  0  0  0  0  0  0  0  0  0  0  0
    1.9875    1.3833    0.0000 O   0  0  0  0  0  0  0  0  0  0  0  0
   -0.5458    3.5083    0.0000 O   0  0  0  0  0  0  0  0  0  0  0  0
    0.7000    4.5792    0.0000 O   0  0  0  0  0  0  0  0  0  0  0  0
   -0.9833   -3.1792    0.0000 C   0  0  0  0  0  0  0  0  0  0  0  0
   -0.4625    4.6542    0.0000 O   0  0  0  0  0  0  0  0  0  0  0  0
    0.4500   -0.6875    0.0000 C   0  0  0  0  0  0  0  0  0  0  0  0
   -0.9833   -2.3500    0.0000 C   0  0  0  0  0  0  0  0  0  0  0  0
   -0.9833   -4.8292    0.0000 O   0  0  0  0  0  0  0  0  0  0  0  0
   -2.4083   -4.8292    0.0000 O   0  0  0  0  0  0  0  0  0  0  0  0
    1.8792    0.1458    0.0000 C   0  0  0  0  0  0  0  0  0  0  0  0
   -2.4083   -3.1792    0.0000 C   0  0  0  0  0  0  0  0  0  0  0  0
    1.8792   -0.6875    0.0000 C   0  0  0  0  0  0  0  0  0  0  0  0
   -2.4083   -2.3542    0.0000 C   0  0  0  0  0  0  0  0  0  0  0  0
    1.1667   -1.1000    0.0000 C   0  0  0  0  0  0  0  0  0  0  0  0
   -1.6958   -1.9375    0.0000 C   0  0  0  0  0  0  0  0  0  0  0  0
  2  1  1  0  0  0  0
  3  4  1  0  0  0  0
  4  5  2  0  0  0  0
  5  2  1  0  0  0  0
  6  7  1  0  0  0  0
  7  2  2  0  0  0  0
  8  1  1  0  0  0  0
  9 12  1  0  0  0  0
 10 11  2  0  0  0  0
 11 20  1  0  0  0  0
 12 18  2  0  0  0  0
 13  8  2  0  0  0  0
 14  1  2  0  0  0  0
 15  1  2  0  0  0  0
 16  3  2  0  0  0  0
 17  3  2  0  0  0  0
 18 21  1  0  0  0  0
 19  3  1  0  0  0  0
 20 13  1  0  0  0  0
 21 10  1  0  0  0  0
 22  9  1  0  0  0  0
 23  9  1  0  0  0  0
 24  8  1  0  0  0  0
 25 27  2  0  0  0  0
 26 24  2  0  0  0  0
 27 29  1  0  0  0  0
 28 26  1  0  0  0  0
 29 21  2  0  0  0  0
  4  6  1  0  0  0  0
 20 28  2  0  0  0  0
 12 25  1  0  0  0  0
M  END
> <From>
www.bindingDB.org

> <BindingDB Reactant_set_id>
50275060

> <Ligand InChI>
InChI=1S/C16H13BN2O7S3/c20-17(21)11-3-1-4-12(7-11)18-19-13-5-2-6-14(8-13)28(22,23)15-9-16(27-10-15)29(24,25)26/h1-10,20-21H,(H,24,25,26)/b19-18+

> <Ligand InChI Key>
BJUPQPAQVQPVTK-VHEBQXMUSA-N

> <BindingDB MonomerID>
50149779

> <BindingDB Ligand Name>
Aza-boronic acid derivative::CHEMBL184890

> <Target Name>
Beta-lactamase

> <Target Source Organism According to Curator or DataSource>
Escherichia coli

> <Ki (nM)>
 2000

> <IC50 (nM)>


> <Kd (nM)>


> <EC50 (nM)>


> <kon (M-1-s-1)>


> <koff (s-1)>


> <pH>


> <Temp C>


> <Curation/DataSource>
ChEMBL

> <Article DOI>
10.1016/j.bmcl.2004.05.054

> <BindingDB Entry DOI>
10.7270/Q2XW4J8P

> <PMID>
15225711

> <PubChem AID>


> <Patent Number>


> <Authors>
Buzzoni, V; Blazquez, J; Ferrari, S; Calo, S; Venturelli, A; Costi, MP

> <Institution>
Universit&#224; degli Studi di Modena e Reggio Emilia

> <Link to Ligand in BindingDB>
http://www.bindingdb.org/bind/chemsearch/marvin/MolStructure.jsp?monomerid=50149779

> <Link to Ligand-Target Pair in BindingDB>
http://www.bindingdb.org/jsp/dbsearch/PrimarySearch_ki.jsp?energyterm=kJ/mole&tag=pol&polymerid=4401&target=Beta-lactamase&column=ki&startPg=0&Increment=50&submit=Search

> <Link to Ligand-Target Pair in BindingDB>
http://www.bindingdb.org/jsp/dbsearch/PrimarySearch_ki.jsp?energyterm=kJ/mole&tag=r21&monomerid=50149779&enzyme=Beta-lactamase&column=ki&startPg=0&Increment=50&submit=Search

> <Ligand HET ID in PDB>


> <PDB ID(s) for Ligand-Target Complex>


> <PubChem CID of Ligand>
44392754

> <PubChem SID of Ligand>
104037854

> <ChEBI ID of Ligand>


> <ChEMBL ID of Ligand>
CHEMBL184890

> <DrugBank ID of Ligand>


> <IUPHAR_GRAC ID of Ligand>


> <KEGG ID of Ligand>


> <ZINC ID of Ligand>


> <Number of Protein Chains in Target (bigger than 1 implies a multichain complex)>
1

> <BindingDB Target Chain Sequence>
MFKTTLCALLITASCSTFAAPQQINDIVHRTITPLIEQQKIPGMAVAVIYQGKPYYFTWGYADIAKKQPVTQQTLFELGSVSKTFTGVLGGDAIARGEIKLSDPTTKYWPELTAKQWNGITLLHLATYTAGGLPLQVPDEVKSSSDLLRFYQNWQPAWAPGTQRLYANSSIGLFGALAVKPSGLSFEQAMQTRVFQPLKLNHTWINVPPAEEKNYAWGYREGKAVHVSPGALDAEAYGVKSTIEDMARWVQSNLKPLDINEKTLQQGIQLAQSRYWQTGDMYQGLGWEMLDWPVNPDSIINGSDNKIALAARPVKAITPPTPAVRASWVHKTGATGGFGSYVAFIPEKELGIVMLANKNYPNPARVDAAWQILNALQ

> <PDB ID(s) of Target Chain>
1C3B,1FCO,1FSW,1FSY,1GA9,1IEL,1IEM,1KDS,1KDW,1KE0,1KE3,1KE4,1KVM,1L2S,1LL5,1LL9,1LLB,1MXO,1MY8,1XGI,1XGJ,2BLS,2HDQ,2HDR,2HDS,2HDU,2I72,2P9V,2PU2,2PU4,2R9W,2R9X,2RCX,3BLS,3BM6,3GQZ,3GR2,3GRJ,3GSG,3GTC,3GV9,3GVB,3O86,3O87,3O88,4E3I,4E3J,4E3K,4E3L,4E3M,4E3N,4E3O,4JXG,4JXS,4JXV,4JXW,4KG2,4KZ3,4KZ4,4KZ5,4KZ6,4KZ7,4KZ8,4KZ9,4KZA,4KZB,4LV0,4LV1,4LV2,4LV3,4OKP,4OLD,4OLG,6DPT,6DPX,6DPY,6DPZ,6T35,6T3D,6T5Y,6T7L,6TBW,6TPM,6WGQ,6YEN,6YEO,6YPD

> <UniProt (SwissProt) Recommended Name of Target Chain>
Beta-lactamase

> <UniProt (SwissProt) Entry Name of Target Chain>
AMPC_ECOLI

> <UniProt (SwissProt) Primary ID of Target Chain>
P00811

> <UniProt (SwissProt) Secondary ID(s) of Target Chain>
Q2M6F2

> <UniProt (SwissProt) Alternative ID(s) of Target Chain>


> <UniProt (TrEMBL) Submitted Name of Target Chain>


> <UniProt (TrEMBL) Entry Name of Target Chain>


> <UniProt (TrEMBL) Primary ID of Target Chain>


> <UniProt (TrEMBL) Secondary ID(s) of Target Chain>


> <UniProt (TrEMBL) Alternative ID(s) of Target Chain>


$$$$

  Mrv0541 11221409162D          

 19 21  0  0  0  0            999 V2000
    6.1471  -19.7321    0.0000 C   0  0  0  0  0  0  0  0  0  0  0  0
    6.1460  -20.5545    0.0000 C   0  0  0  0  0  0  0  0  0  0  0  0
    6.8644  -20.9670    0.0000 C   0  0  0  0  0  0  0  0  0  0  0  0
    6.8626  -19.3197    0.0000 C   0  0  0  0  0  0  0  0  0  0  0  0
    7.5731  -19.7284    0.0000 C   0  0  0  0  0  0  0  0  0  0  0  0
    7.5733  -20.5545    0.0000 C   0  0  0  0  0  0  0  0  0  0  0  0
    8.3589  -20.8067    0.0000 S   0  0  0  0  0  0  0  0  0  0  0  0
    8.8385  -20.1473    0.0000 C   0  0  0  0  0  0  0  0  0  0  0  0
    8.3585  -19.4758    0.0000 C   0  0  0  0  0  0  0  0  0  0  0  0
    9.6627  -20.1512    0.0000 B   0  0  0  0  0  0  0  0  0  0  0  0
   10.0752  -20.8608    0.0000 O   0  0  0  0  0  0  0  0  0  0  0  0
   10.0747  -19.4331    0.0000 O   0  0  0  0  0  0  0  0  0  0  0  0
    5.4249  -19.3160    0.0000 C   0  0  0  0  0  0  0  0  0  0  0  0
    4.7128  -19.7322    0.0000 N   0  0  0  0  0  0  0  0  0  0  0  0
    4.0007  -19.3217    0.0000 C   0  0  0  0  0  0  0  0  0  0  0  0
    3.2864  -19.7332    0.0000 C   0  0  0  0  0  0  0  0  0  0  0  0
    3.2903  -20.5579    0.0000 N   0  0  0  0  0  0  0  0  0  0  0  0
    4.0069  -20.9691    0.0000 C   0  0  0  0  0  0  0  0  0  0  0  0
    4.7194  -20.5595    0.0000 C   0  0  0  0  0  0  0  0  0  0  0  0
  9  5  1  0  0  0  0
  4  1  1  0  0  0  0
  8 10  1  0  0  0  0
  5  6  1  0  0  0  0
 10 11  1  0  0  0  0
 10 12  1  0  0  0  0
  2  3  1  0  0  0  0
  1 13  1  0  0  0  0
  3  6  2  0  0  0  0
 13 14  1  0  0  0  0
 14 15  1  0  0  0  0
  1  2  2  0  0  0  0
  5  4  2  0  0  0  0
  6  7  1  0  0  0  0
  7  8  1  0  0  0  0
  8  9  2  0  0  0  0
 14 19  1  0  0  0  0
 15 16  1  0  0  0  0
 16 17  1  0  0  0  0
 17 18  1  0  0  0  0
 18 19  1  0  0  0  0
M  END
> <From>
www.bindingDB.org

> <BindingDB Reactant_set_id>
50404436

> <Ligand InChI>
InChI=1S/C13H17BN2O2S/c17-14(18)13-8-11-7-10(1-2-12(11)19-13)9-16-5-3-15-4-6-16/h1-2,7-8,15,17-18H,3-6,9H2

> <Ligand InChI Key>
AKBSFHBVPHVWIW-UHFFFAOYSA-N

> <BindingDB MonomerID>
50225382

> <BindingDB Ligand Name>
CHEMBL398112::pinacol 5-piperazin-1-ylmethylbenzo[b]thiophen-2-ylboronate

> <Target Name>
Beta-lactamase TEM

> <Target Source Organism According to Curator or DataSource>


> <Ki (nM)>
 2000

> <IC50 (nM)>


> <Kd (nM)>


> <EC50 (nM)>


> <kon (M-1-s-1)>


> <koff (s-1)>


> <pH>


> <Temp C>


> <Curation/DataSource>
ChEMBL

> <Article DOI>
10.1021/jm070643q

> <BindingDB Entry DOI>
10.7270/Q21N80W5

> <PMID>
17956081

> <PubChem AID>


> <Patent Number>


> <Authors>
Venturelli, A; Tondi, D; Cancian, L; Morandi, F; Cannazza, G; Segatore, B; Prati, F; Amicosante, G; Shoichet, BK; Costi, MP

> <Institution>
Universit&#224; degli Studi di Modena e Reggio Emilia

> <Link to Ligand in BindingDB>
http://www.bindingdb.org/bind/chemsearch/marvin/MolStructure.jsp?monomerid=50225382

> <Link to Ligand-Target Pair in BindingDB>
http://www.bindingdb.org/jsp/dbsearch/PrimarySearch_ki.jsp?energyterm=kJ/mole&tag=pol&polymerid=7704&target=Beta-lactamase+TEM&column=ki&startPg=0&Increment=50&submit=Search

> <Link to Ligand-Target Pair in BindingDB>
http://www.bindingdb.org/jsp/dbsearch/PrimarySearch_ki.jsp?energyterm=kJ/mole&tag=r21&monomerid=50225382&enzyme=Beta-lactamase+TEM&column=ki&startPg=0&Increment=50&submit=Search

> <Ligand HET ID in PDB>


> <PDB ID(s) for Ligand-Target Complex>


> <PubChem CID of Ligand>
23655684

> <PubChem SID of Ligand>
104096688

> <ChEBI ID of Ligand>


> <ChEMBL ID of Ligand>
CHEMBL398112

> <DrugBank ID of Ligand>


> <IUPHAR_GRAC ID of Ligand>


> <KEGG ID of Ligand>


> <ZINC ID of Ligand>


> <Number of Protein Chains in Target (bigger than 1 implies a multichain complex)>
1

> <BindingDB Target Chain Sequence>
MSIQHFRVALIPFFAAFCLPVFAHPETLVKVKDAEDQLGARVGYIELDLNSGKILESFRPEERFPMMSTFKVLLCGAVLSRVDAGQEQLGRRIHYSQNDLVEYSPVTEKHLTDGMTVRELCSAAITMSDNTAANLLLTTIGGPKELTAFLHNMGDHVTRLDRWEPELNEAIPNDERDTTMPAAMATTLRKLLTGELLTLASRQQLIDWMEADKVAGPLLRSALPAGWFIADKSGAGERGSRGIIAALGPDGKPSRIVVIYTTGSQATMDERNRQIAEIGASLIKHW

> <PDB ID(s) of Target Chain>
1ERM,1ERO,1ERQ,1ESU,1FQG,1JTD,1JVJ,1JWP,1JWV,1LHY,1LI9,1M40,1NXY,1NY0,1NYM,1NYY,1PZO,1PZP,1S0W,1XPB,1YT4,2V1Z,2V20,3CMZ,3DTM,3JYI,3P98,4DXB,4DXC,4GKU,4ZJ2,5AQ8,5HVI,5HW1,5HW5,5NPO,6B2N,7QLP,7QNK,7U6Q,8DE0

> <UniProt (SwissProt) Recommended Name of Target Chain>
Beta-lactamase TEM

> <UniProt (SwissProt) Entry Name of Target Chain>
BLAT_ECOLX

> <UniProt (SwissProt) Primary ID of Target Chain>
P62593

> <UniProt (SwissProt) Secondary ID(s) of Target Chain>
P00810 Q47313

> <UniProt (SwissProt) Alternative ID(s) of Target Chain>


> <UniProt (TrEMBL) Submitted Name of Target Chain>


> <UniProt (TrEMBL) Entry Name of Target Chain>


> <UniProt (TrEMBL) Primary ID of Target Chain>


> <UniProt (TrEMBL) Secondary ID(s) of Target Chain>


> <UniProt (TrEMBL) Alternative ID(s) of Target Chain>


$$$$

  Mrv0541 11191401012D          

 32 34  0  0  0  0            999 V2000
   -0.7396    1.4778    0.0000 C   0  0  0  0  0  0  0  0  0  0  0  0
   -1.5646    1.4778    0.0000 C   0  0  0  0  0  0  0  0  0  0  0  0
   -1.9771    2.1922    0.0000 C   0  0  0  0  0  0  0  0  0  0  0  0
   -1.5646    2.9067    0.0000 C   0  0  0  0  0  0  0  0  0  0  0  0
   -0.7396    2.9067    0.0000 C   0  0  0  0  0  0  0  0  0  0  0  0
   -0.3271    2.1922    0.0000 C   0  0  0  0  0  0  0  0  0  0  0  0
   -1.9771    3.6212    0.0000 B   0  0  0  0  0  0  0  0  0  0  0  0
   -2.8021    3.6212    0.0000 O   0  0  0  0  0  0  0  0  0  0  0  0
   -1.5646    4.3356    0.0000 O   0  0  0  0  0  0  0  0  0  0  0  0
    0.4979    2.1922    0.0000 N   0  0  0  0  0  0  0  0  0  0  0  0
    0.9104    1.4778    0.0000 S   0  0  0  0  0  0  0  0  0  0  0  0
    0.4979    0.7633    0.0000 O   0  0  0  0  0  0  0  0  0  0  0  0
    1.7354    1.4778    0.0000 C   0  0  0  0  0  0  0  0  0  0  0  0
    1.3229    2.1923    0.0000 O   0  0  0  0  0  0  0  0  0  0  0  0
    2.9729    2.1923    0.0000 C   0  0  0  0  0  0  0  0  0  0  0  0
    2.1479    2.1923    0.0000 C   0  0  0  0  0  0  0  0  0  0  0  0
    2.1479    0.7633    0.0000 C   0  0  0  0  0  0  0  0  0  0  0  0
    2.9729    0.7634    0.0000 C   0  0  0  0  0  0  0  0  0  0  0  0
    3.3854    1.4778    0.0000 C   0  0  0  0  0  0  0  0  0  0  0  0
    3.3854    0.0489    0.0000 N   0  0  0  0  0  0  0  0  0  0  0  0
    4.2104    0.0489    0.0000 S   0  0  0  0  0  0  0  0  0  0  0  0
    4.7938   -0.5345    0.0000 C   0  0  0  0  0  0  0  0  0  0  0  0
    3.7979    0.7634    0.0000 O   0  0  0  0  0  0  0  0  0  0  0  0
    4.9249    0.4614    0.0000 O   0  0  0  0  0  0  0  0  0  0  0  0
    5.5906   -0.3209    0.0000 C   0  0  0  0  0  0  0  0  0  0  0  0
    4.5802   -1.3314    0.0000 C   0  0  0  0  0  0  0  0  0  0  0  0
    5.1636   -1.9147    0.0000 C   0  0  0  0  0  0  0  0  0  0  0  0
    5.9605   -1.7012    0.0000 C   0  0  0  0  0  0  0  0  0  0  0  0
    6.1740   -0.9043    0.0000 C   0  0  0  0  0  0  0  0  0  0  0  0
    6.5438   -2.2846    0.0000 C   0  0  0  0  0  0  0  0  0  0  0  0
    7.3407   -2.0710    0.0000 O   0  0  0  0  0  0  0  0  0  0  0  0
    6.3303   -3.0815    0.0000 O   0  0  0  0  0  0  0  0  0  0  0  0
  1  2  2  0  0  0  0
  2  3  1  0  0  0  0
  3  4  2  0  0  0  0
  4  5  1  0  0  0  0
  5  6  2  0  0  0  0
  1  6  1  0  0  0  0
  4  7  1  0  0  0  0
  7  8  1  0  0  0  0
  7  9  1  0  0  0  0
  6 10  1  0  0  0  0
 10 11  1  0  0  0  0
 11 12  2  0  0  0  0
 11 13  1  0  0  0  0
 11 14  2  0  0  0  0
 16 13  2  0  0  0  0
 13 17  1  0  0  0  0
 15 16  1  0  0  0  0
 17 18  2  0  0  0  0
 18 19  1  0  0  0  0
 15 19  2  0  0  0  0
 18 20  1  0  0  0  0
 20 21  1  0  0  0  0
 21 22  1  0  0  0  0
 21 23  2  0  0  0  0
 21 24  2  0  0  0  0
 25 22  2  0  0  0  0
 22 26  1  0  0  0  0
 26 27  2  0  0  0  0
 27 28  1  0  0  0  0
 28 29  2  0  0  0  0
 25 29  1  0  0  0  0
 28 30  1  0  0  0  0
 30 31  2  0  0  0  0
 30 32  1  0  0  0  0
M  END
> <From>
www.bindingDB.org

> <BindingDB Reactant_set_id>
74850

> <Ligand InChI>
InChI=1S/C19H17BN2O8S2/c23-19(24)13-7-9-17(10-8-13)31(27,28)22-16-5-2-6-18(12-16)32(29,30)21-15-4-1-3-14(11-15)20(25)26/h1-12,21-22,25-26H,(H,23,24)

> <Ligand InChI Key>
SXBYWLSPXCJQIF-UHFFFAOYSA-N

> <BindingDB MonomerID>
39856

> <BindingDB Ligand Name>
Amide and sulfonamide derivatives, 41

> <Target Name>
Beta-lactamase

> <Target Source Organism According to Curator or DataSource>
Staphylococcus aureus

> <Ki (nM)>
 2e+3

> <IC50 (nM)>


> <Kd (nM)>


> <EC50 (nM)>


> <kon (M-1-s-1)>


> <koff (s-1)>


> <pH>
7

> <Temp C>


> <Curation/DataSource>
Curated from the literature by BindingDB

> <Article DOI>
10.1016/S1074-5521(01)00034-5

> <BindingDB Entry DOI>
10.7270/Q27M06BZ

> <PMID>
11410378

> <PubChem AID>
aid1799472

> <Patent Number>


> <Authors>
Tondi, D; Powers, RA; Caselli, E; Negri, MC; Bl&aacute;zquez, J; Costi, MP; Shoichet, BK

> <Institution>
Northwestern University

> <Link to Ligand in BindingDB>
http://www.bindingdb.org/bind/chemsearch/marvin/MolStructure.jsp?monomerid=39856

> <Link to Ligand-Target Pair in BindingDB>
http://www.bindingdb.org/jsp/dbsearch/PrimarySearch_ki.jsp?energyterm=kJ/mole&tag=pol&polymerid=50000333&target=Beta-lactamase&column=ki&startPg=0&Increment=50&submit=Search

> <Link to Ligand-Target Pair in BindingDB>
http://www.bindingdb.org/jsp/dbsearch/PrimarySearch_ki.jsp?energyterm=kJ/mole&tag=r21&monomerid=39856&enzyme=Beta-lactamase&column=ki&startPg=0&Increment=50&submit=Search

> <Ligand HET ID in PDB>


> <PDB ID(s) for Ligand-Target Complex>


> <PubChem CID of Ligand>
9869567

> <PubChem SID of Ligand>
123080164

> <ChEBI ID of Ligand>


> <ChEMBL ID of Ligand>


> <DrugBank ID of Ligand>


> <IUPHAR_GRAC ID of Ligand>


> <KEGG ID of Ligand>


> <ZINC ID of Ligand>


> <Number of Protein Chains in Target (bigger than 1 implies a multichain complex)>
1

> <BindingDB Target Chain Sequence>
MKKLIFLIVIALVLSACNSNSSHAKELNDLEKKYNAHIGVYALDTKSGKEVKFNSDKRFAYASTSKAINSAILLEQVPYNKLNKKVHINKDDIVAYSPILEKYVGKDITLKALIEASMTYSDNTANNKIIKEIGGIKKVKQRLKELGDKVTNPVRYEIELNYYSPKSKKDTSTPAAFGKTLNKLIANGKLSKENKKFLLDLMLNNKSGDTLIKDGVPKDYKVADKSGQAITYASRNDVAFVYPKGQSEPIVLVIFTNKDNKSDKPNDKLISETAKSVMKEF

> <PDB ID(s) of Target Chain>
1OME,3BLM

> <UniProt (SwissProt) Recommended Name of Target Chain>
Beta-lactamase

> <UniProt (SwissProt) Entry Name of Target Chain>
BLAC_STAAU

> <UniProt (SwissProt) Primary ID of Target Chain>
P00807

> <UniProt (SwissProt) Secondary ID(s) of Target Chain>


> <UniProt (SwissProt) Alternative ID(s) of Target Chain>


> <UniProt (TrEMBL) Submitted Name of Target Chain>


> <UniProt (TrEMBL) Entry Name of Target Chain>


> <UniProt (TrEMBL) Primary ID of Target Chain>


> <UniProt (TrEMBL) Secondary ID(s) of Target Chain>


> <UniProt (TrEMBL) Alternative ID(s) of Target Chain>


$$$$
 
  Mrv0541 11221409272D          

 28 29  0  0  0  0            999 V2000
    9.6189   -1.2150    0.0000 C   0  0  0  0  0  0  0  0  0  0  0  0
   10.3348   -0.8025    0.0000 C   0  0  1  0  0  0  0  0  0  0  0  0
   11.1339   -1.0135    0.0000 C   0  0  1  0  0  0  0  0  0  0  0  0
   11.3449   -0.2186    0.0000 C   0  0  0  0  0  0  0  0  0  0  0  0
   12.0608    0.1939    0.0000 O   0  0  0  0  0  0  0  0  0  0  0  0
   10.5500   -0.0034    0.0000 N   0  0  0  0  0  0  0  0  0  0  0  0
   10.1375    0.7124    0.0000 S   0  0  0  0  0  0  0  0  0  0  0  0
    9.4216    0.2999    0.0000 O   0  0  0  0  0  0  0  0  0  0  0  0
   10.8534    1.1249    0.0000 O   0  0  0  0  0  0  0  0  0  0  0  0
    9.7250    1.4241    0.0000 O   0  0  0  0  0  0  0  0  0  0  0  0
   11.5464   -1.7294    0.0000 N   0  0  0  0  0  0  0  0  0  0  0  0
   11.1339   -2.4453    0.0000 C   0  0  0  0  0  0  0  0  0  0  0  0
   10.3047   -2.4453    0.0000 O   0  0  0  0  0  0  0  0  0  0  0  0
   11.5464   -3.1570    0.0000 C   0  0  0  0  0  0  0  0  0  0  0  0
   11.1339   -3.8728    0.0000 N   0  0  0  0  0  0  0  0  0  0  0  0
   10.3047   -3.8728    0.0000 O   0  0  0  0  0  0  0  0  0  0  0  0
    9.8922   -4.5887    0.0000 C   0  0  0  0  0  0  0  0  0  0  0  0
    9.1805   -4.1762    0.0000 C   0  0  0  0  0  0  0  0  0  0  0  0
    9.4797   -5.3004    0.0000 C   0  0  0  0  0  0  0  0  0  0  0  0
   10.6081   -5.0012    0.0000 C   0  0  0  0  0  0  0  0  0  0  0  0
   10.6081   -5.8262    0.0000 O   0  0  0  0  0  0  0  0  0  0  0  0
   11.3239   -4.5887    0.0000 O   0  0  0  0  0  0  0  0  0  0  0  0
   12.3714   -3.1570    0.0000 C   0  0  0  0  0  0  0  0  0  0  0  0
   12.8561   -2.4915    0.0000 C   0  0  0  0  0  0  0  0  0  0  0  0
   13.6408   -2.7445    0.0000 S   0  0  0  0  0  0  0  0  0  0  0  0
   13.6408   -3.5695    0.0000 C   0  0  0  0  0  0  0  0  0  0  0  0
   12.8561   -3.8266    0.0000 N   0  0  0  0  0  0  0  0  0  0  0  0
   14.3062   -4.0542    0.0000 N   0  0  0  0  0  0  0  0  0  0  0  0
  2  1  1  6  0  0  0
  2  3  1  0  0  0  0
  3  4  1  0  0  0  0
  4  5  2  0  0  0  0
  4  6  1  0  0  0  0
  2  6  1  0  0  0  0
  6  7  1  0  0  0  0
  7  8  2  0  0  0  0
  7  9  2  0  0  0  0
  7 10  1  0  0  0  0
  3 11  1  1  0  0  0
 11 12  1  0  0  0  0
 12 13  2  0  0  0  0
 12 14  1  0  0  0  0
 14 15  2  0  0  0  0
 15 16  1  0  0  0  0
 16 17  1  0  0  0  0
 17 18  1  0  0  0  0
 17 19  1  0  0  0  0
 17 20  1  0  0  0  0
 20 21  2  0  0  0  0
 20 22  1  0  0  0  0
 14 23  1  0  0  0  0
 23 24  2  0  0  0  0
 24 25  1  0  0  0  0
 25 26  1  0  0  0  0
 26 27  2  0  0  0  0
 23 27  1  0  0  0  0
 26 28  1  0  0  0  0
M  END
> <From>
www.bindingDB.org

> <BindingDB Reactant_set_id>
50382888

> <Ligand InChI>
InChI=1S/C13H17N5O8S2/c1-5-7(10(20)18(5)28(23,24)25)16-9(19)8(6-4-27-12(14)15-6)17-26-13(2,3)11(21)22/h4-5,7H,1-3H3,(H2,14,15)(H,16,19)(H,21,22)(H,23,24,25)/b17-8-/t5-,7-/m0/s1

> <Ligand InChI Key>
WZPBZJONDBGPKJ-VEHQQRBSSA-N

> <BindingDB MonomerID>
50240480

> <BindingDB Ligand Name>
(2S,3S)-3-({(2Z)-2-(2-ammonio-1,3-thiazol-4-yl)-2-[(1-carboxy-1-methylethoxy)imino]ethanoyl}amino)-2-methyl-4-oxoazetidine-1-sulfonate::(2S,3S)-3-({(2Z)-2-(2-ammonio-1,3-thiazol-4-yl)-2-[(1-carboxy-1-methylethoxy)imino]ethanoyl}amino)-2-methyl-4-oxoazetidine-1-sulfonate(aztreonam)::2-[1-(2-Amino-thiazol-4-yl)-1-((2S,3S)-2-methyl-4-oxo-1-sulfo-azetidin-3-ylcarbamoyl)-meth-(Z)-ylideneaminooxy]-2-methyl-propionic acid::AZTREONAM::Azactam::Azetreonam::CHEMBL158::SQ-26776

> <Target Name>
Beta-lactamase

> <Target Source Organism According to Curator or DataSource>
Citrobacter freundii

> <Ki (nM)>
 2000

> <IC50 (nM)>


> <Kd (nM)>


> <EC50 (nM)>


> <kon (M-1-s-1)>


> <koff (s-1)>


> <pH>


> <Temp C>


> <Curation/DataSource>
ChEMBL

> <Article DOI>
10.1128/AAC.01395-06

> <BindingDB Entry DOI>
10.7270/Q24X57J4

> <PMID>
17438050

> <PubChem AID>


> <Patent Number>


> <Authors>
Power, P; Di Conza, J; Rodriguez, MM; Ghiglione, B; Ayala, JA; Casellas, JM; Radice, M; Gutkind, G

> <Institution>
Universidad de Buenos Aires

> <Link to Ligand in BindingDB>
http://www.bindingdb.org/bind/chemsearch/marvin/MolStructure.jsp?monomerid=50240480

> <Link to Ligand-Target Pair in BindingDB>
http://www.bindingdb.org/jsp/dbsearch/PrimarySearch_ki.jsp?energyterm=kJ/mole&tag=pol&polymerid=50003889&target=Beta-lactamase&column=ki&startPg=0&Increment=50&submit=Search

> <Link to Ligand-Target Pair in BindingDB>
http://www.bindingdb.org/jsp/dbsearch/PrimarySearch_ki.jsp?energyterm=kJ/mole&tag=r21&monomerid=50240480&enzyme=Beta-lactamase&column=ki&startPg=0&Increment=50&submit=Search

> <Ligand HET ID in PDB>


> <PDB ID(s) for Ligand-Target Complex>


> <PubChem CID of Ligand>
5742832

> <PubChem SID of Ligand>
104098313

> <ChEBI ID of Ligand>


> <ChEMBL ID of Ligand>
CHEMBL158

> <DrugBank ID of Ligand>


> <IUPHAR_GRAC ID of Ligand>


> <KEGG ID of Ligand>


> <ZINC ID of Ligand>
ZINC19795769

> <Number of Protein Chains in Target (bigger than 1 implies a multichain complex)>
1

> <BindingDB Target Chain Sequence>
MNVITKCVFTASALLMLGLSSFVVSAQSPLLKEQIETIVTGKKATVGVAVWGPDDLEPLLLNPFEKFPMQSVFKLHLAMLVLHQVDQGKLDLNQSVTVNRAAVLQNTWSPMMKDHQGDEFTVAVQQLLQYSVSHSDNVACDLLFELVGGPQALHAYIQSLGVKEAAVVANEAQMHADDQVQYQNWTSMKAAAQVLQKFEQKKQLSETSQALLWKWMVETTTGPQRLKGLLPAGTIVAHKTGTSGVRAGKTAATNDAGVIMLPDGRPLLVAVFVKDSAESERTNEAIIAQVAQAAYQFELKKLSAVSPD

> <PDB ID(s) of Target Chain>
4D2O,6D3G,6DGU

> <UniProt (SwissProt) Recommended Name of Target Chain>


> <UniProt (SwissProt) Entry Name of Target Chain>


> <UniProt (SwissProt) Primary ID of Target Chain>


> <UniProt (SwissProt) Secondary ID(s) of Target Chain>


> <UniProt (SwissProt) Alternative ID(s) of Target Chain>


> <UniProt (TrEMBL) Submitted Name of Target Chain>
Beta-lactamase

> <UniProt (TrEMBL) Entry Name of Target Chain>
A2RP81_CITFR

> <UniProt (TrEMBL) Primary ID of Target Chain>
A2RP81

> <UniProt (TrEMBL) Secondary ID(s) of Target Chain>


> <UniProt (TrEMBL) Alternative ID(s) of Target Chain>


$$$$
 
     RDKit          2D

 21 22  0  0  0  0  0  0  0  0999 V2000
   32.0659   -5.7328    0.0000 C   0  0  0  0  0  0  0  0  0  0  0  0
   32.7737   -5.3200    0.0000 C   0  0  0  0  0  0  0  0  0  0  0  0
   33.4855   -5.7328    0.0000 N   0  0  0  0  0  0  0  0  0  0  0  0
   34.1973   -5.3200    0.0000 C   0  0  0  0  0  0  0  0  0  0  0  0
   34.9092   -5.7328    0.0000 B   0  0  0  0  0  0  0  0  0  0  0  0
   35.6210   -5.3200    0.0000 O   0  0  0  0  0  0  0  0  0  0  0  0
   34.9092   -6.5541    0.0000 O   0  0  0  0  0  0  0  0  0  0  0  0
   34.1973   -4.5029    0.0000 C   0  0  0  0  0  0  0  0  0  0  0  0
   32.7737   -4.4987    0.0000 O   0  0  0  0  0  0  0  0  0  0  0  0
   31.3593   -5.3183    0.0000 C   0  0  0  0  0  0  0  0  0  0  0  0
   30.6505   -5.7292    0.0000 S   0  0  0  0  0  0  0  0  0  0  0  0
   32.0639   -6.5500    0.0000 C   0  0  0  0  0  0  0  0  0  0  0  0
   34.9063   -4.0974    0.0000 C   0  0  0  0  0  0  0  0  0  0  0  0
   33.4894   -3.2846    0.0000 C   0  0  0  0  0  0  0  0  0  0  0  0
   33.4926   -4.0997    0.0000 C   0  0  0  0  0  0  0  0  0  0  0  0
   34.1990   -2.8695    0.0000 C   0  0  0  0  0  0  0  0  0  0  0  0
   34.9046   -3.2811    0.0000 C   0  0  0  0  0  0  0  0  0  0  0  0
   35.6118   -2.8759    0.0000 C   0  0  0  0  0  0  0  0  0  0  0  0
   35.6146   -2.0592    0.0000 C   0  0  0  0  0  0  0  0  0  0  0  0
   34.9042   -1.6494    0.0000 C   0  0  0  0  0  0  0  0  0  0  0  0
   34.1999   -2.0570    0.0000 C   0  0  0  0  0  0  0  0  0  0  0  0
  1  2  1  0
  2  3  1  0
  3  4  1  0
  4  5  1  1
  5  6  1  0
  5  7  1  0
  4  8  1  0
  2  9  2  0
  1 10  1  0
 10 11  1  0
  1 12  1  6
  8 13  2  0
 13 17  1  0
 16 14  1  0
 14 15  2  0
 15  8  1  0
 16 17  1  0
 17 18  2  0
 18 19  1  0
 19 20  2  0
 20 21  1  0
 21 16  2  0
M  END
> <From>
www.bindingDB.org

> <BindingDB Reactant_set_id>
51270506

> <Ligand InChI>
InChI=1S/C15H18BNO3S/c1-10(9-21)15(18)17-14(16(19)20)13-7-6-11-4-2-3-5-12(11)8-13/h2-8,10,14,19-21H,9H2,1H3,(H,17,18)/t10-,14+/m1/s1

> <Ligand InChI Key>
IQMDPFNHBHCYOR-YGRLFVJLSA-N

> <BindingDB MonomerID>
50518879

> <BindingDB Ligand Name>
CHEMBL4450911

> <Target Name>
Beta-lactamase TEM

> <Target Source Organism According to Curator or DataSource>


> <Ki (nM)>
 2030

> <IC50 (nM)>


> <Kd (nM)>


> <EC50 (nM)>


> <kon (M-1-s-1)>


> <koff (s-1)>


> <pH>


> <Temp C>


> <Curation/DataSource>
ChEMBL

> <Article DOI>
10.1021/acs.jmedchem.9b00735

> <BindingDB Entry DOI>
10.7270/Q22R3W2M

> <PMID>
31269398

> <PubChem AID>


> <Patent Number>


> <Authors>
Wang, YL; Liu, S; Yu, ZJ; Lei, Y; Huang, MY; Yan, YH; Ma, Q; Zheng, Y; Deng, H; Sun, Y; Wu, C; Yu, Y; Chen, Q; Wang, Z; Wu, Y; Li, GB

> <Institution>
Sichuan University

> <Link to Ligand in BindingDB>
http://www.bindingdb.org/bind/chemsearch/marvin/MolStructure.jsp?monomerid=50518879

> <Link to Ligand-Target Pair in BindingDB>
http://www.bindingdb.org/jsp/dbsearch/PrimarySearch_ki.jsp?energyterm=kJ/mole&tag=pol&polymerid=7704&target=Beta-lactamase+TEM&column=ki&startPg=0&Increment=50&submit=Search

> <Link to Ligand-Target Pair in BindingDB>
http://www.bindingdb.org/jsp/dbsearch/PrimarySearch_ki.jsp?energyterm=kJ/mole&tag=r21&monomerid=50518879&enzyme=Beta-lactamase+TEM&column=ki&startPg=0&Increment=50&submit=Search

> <Ligand HET ID in PDB>


> <PDB ID(s) for Ligand-Target Complex>


> <PubChem CID of Ligand>
155522169

> <PubChem SID of Ligand>
440727461

> <ChEBI ID of Ligand>


> <ChEMBL ID of Ligand>


> <DrugBank ID of Ligand>


> <IUPHAR_GRAC ID of Ligand>


> <KEGG ID of Ligand>


> <ZINC ID of Ligand>


> <Number of Protein Chains in Target (bigger than 1 implies a multichain complex)>
1

> <BindingDB Target Chain Sequence>
MSIQHFRVALIPFFAAFCLPVFAHPETLVKVKDAEDQLGARVGYIELDLNSGKILESFRPEERFPMMSTFKVLLCGAVLSRVDAGQEQLGRRIHYSQNDLVEYSPVTEKHLTDGMTVRELCSAAITMSDNTAANLLLTTIGGPKELTAFLHNMGDHVTRLDRWEPELNEAIPNDERDTTMPAAMATTLRKLLTGELLTLASRQQLIDWMEADKVAGPLLRSALPAGWFIADKSGAGERGSRGIIAALGPDGKPSRIVVIYTTGSQATMDERNRQIAEIGASLIKHW

> <PDB ID(s) of Target Chain>
1ERM,1ERO,1ERQ,1ESU,1FQG,1JTD,1JVJ,1JWP,1JWV,1LHY,1LI9,1M40,1NXY,1NY0,1NYM,1NYY,1PZO,1PZP,1S0W,1XPB,1YT4,2V1Z,2V20,3CMZ,3DTM,3JYI,3P98,4DXB,4DXC,4GKU,4ZJ2,5AQ8,5HVI,5HW1,5HW5,5NPO,6B2N,7QLP,7QNK,7U6Q,8DE0

> <UniProt (SwissProt) Recommended Name of Target Chain>
Beta-lactamase TEM

> <UniProt (SwissProt) Entry Name of Target Chain>
BLAT_ECOLX

> <UniProt (SwissProt) Primary ID of Target Chain>
P62593

> <UniProt (SwissProt) Secondary ID(s) of Target Chain>
P00810 Q47313

> <UniProt (SwissProt) Alternative ID(s) of Target Chain>


> <UniProt (TrEMBL) Submitted Name of Target Chain>


> <UniProt (TrEMBL) Entry Name of Target Chain>


> <UniProt (TrEMBL) Primary ID of Target Chain>


> <UniProt (TrEMBL) Secondary ID(s) of Target Chain>


> <UniProt (TrEMBL) Alternative ID(s) of Target Chain>


$$$$

  SciTegic04181614082D

 28 30  0  0  0  0            999 V2000
    2.7343   -2.9815    0.0000 N   0  0
    4.2010   -3.2956    0.0000 N   0  0
    4.9531   -1.9978    0.0000 C   0  0
    3.9511   -0.8815    0.0000 N   0  0
    2.5987   -1.5004    0.0000 C   0  0
    6.4430   -1.8404    0.0000 S   0  0
    7.0537   -0.4695    0.0000 C   0  0
    8.5462   -0.3118    0.0000 C   0  0
    9.1568    1.0592    0.0000 N   0  0
    9.2517   -1.2825    0.0000 O   0  0
   10.6493    1.2168    0.0000 C   0  0
    1.2990   -0.7500    0.0000 C   0  0
    1.2990    0.7500    0.0000 C   0  0
    0.0000    1.5000    0.0000 C   0  0
   -1.2990    0.7500    0.0000 C   0  0
   -1.2990   -0.7500    0.0000 C   0  0
    0.0000   -1.5000    0.0000 C   0  0
    2.5972    1.5031    0.0000 C   0  0
    3.6375    0.9049    0.0000 O   0  0
    2.5955    2.7031    0.0000 O   0  0
   11.2616    2.5861    0.0000 C   0  0
   12.7537    2.7406    0.0000 C   0  0
   13.6335    1.5258    0.0000 C   0  0
   13.0213    0.1564    0.0000 C   0  0
   11.5292    0.0019    0.0000 C   0  0
   15.1266    1.6773    0.0000 N   0  3
   15.8291    0.7044    0.0000 O   0  0
   15.6183    2.7719    0.0000 O   0  5
  1  2  1  0
  2  3  2  0
  3  4  1  0
  4  5  1  0
  5  1  2  0
  3  6  1  0
  6  7  1  0
  7  8  1  0
  8  9  1  0
  8 10  2  0
  9 11  1  0
 12 13  2  0
 13 14  1  0
 14 15  2  0
 15 16  1  0
 16 17  2  0
 17 12  1  0
  5 12  1  0
 18 19  1  0
 18 20  2  0
 13 18  1  0
 11 21  2  0
 21 22  1  0
 22 23  2  0
 23 24  1  0
 24 25  2  0
 25 11  1  0
 26 27  2  0
 26 28  1  0
 23 26  1  0
M  CHG  2  26   1  28  -1
M  END
> <From>
www.bindingDB.org

> <BindingDB Reactant_set_id>
50342715

> <Ligand InChI>
InChI=1S/C17H13N5O5S/c23-14(18-10-5-7-11(8-6-10)22(26)27)9-28-17-19-15(20-21-17)12-3-1-2-4-13(12)16(24)25/h1-8H,9H2,(H,18,23)(H,24,25)(H,19,20,21)

> <Ligand InChI Key>
TWXSDEFMIUMCBD-UHFFFAOYSA-N

> <BindingDB MonomerID>
50089392

> <BindingDB Ligand Name>
CHEMBL3577965

> <Target Name>
Beta-lactamase

> <Target Source Organism According to Curator or DataSource>


> <Ki (nM)>
 2200

> <IC50 (nM)>


> <Kd (nM)>


> <EC50 (nM)>


> <kon (M-1-s-1)>


> <koff (s-1)>


> <pH>


> <Temp C>


> <Curation/DataSource>
ChEMBL

> <Article DOI>
10.1021/ml500534c

> <BindingDB Entry DOI>
10.7270/Q2XP76P0

> <PMID>
25893049

> <PubChem AID>


> <Patent Number>


> <Authors>
Yang, SK; Kang, JS; Oelschlaeger, P; Yang, KW

> <Institution>
North-West University

> <Link to Ligand in BindingDB>
http://www.bindingdb.org/bind/chemsearch/marvin/MolStructure.jsp?monomerid=50089392

> <Link to Ligand-Target Pair in BindingDB>
http://www.bindingdb.org/jsp/dbsearch/PrimarySearch_ki.jsp?energyterm=kJ/mole&tag=pol&polymerid=50006888&target=Beta-lactamase&column=ki&startPg=0&Increment=50&submit=Search

> <Link to Ligand-Target Pair in BindingDB>
http://www.bindingdb.org/jsp/dbsearch/PrimarySearch_ki.jsp?energyterm=kJ/mole&tag=r21&monomerid=50089392&enzyme=Beta-lactamase&column=ki&startPg=0&Increment=50&submit=Search

> <Ligand HET ID in PDB>


> <PDB ID(s) for Ligand-Target Complex>


> <PubChem CID of Ligand>
122178135

> <PubChem SID of Ligand>
103988181

> <ChEBI ID of Ligand>


> <ChEMBL ID of Ligand>
CHEMBL3577965

> <DrugBank ID of Ligand>


> <IUPHAR_GRAC ID of Ligand>


> <KEGG ID of Ligand>
C02125

> <ZINC ID of Ligand>
ZINC26489007

> <Number of Protein Chains in Target (bigger than 1 implies a multichain complex)>
1

> <BindingDB Target Chain Sequence>
MMKGWIKCGLAGAVVLMASFWGGSVRAAGMSLTQQVSGPVYVVEDNYYVQENSMVYFGAKGVTVVGATWTPDTARELHKLIKRVSRKPVLEVINTNYHTDRAGGNAYWKSIGAKVISTRQTRDLMKSDWAEIVAFTRKGLPEYPDLPLVLPNVVHEGDFTLQEGKLRAFYLGPAHSPDGIFVYFPDQQVLYGNCILKEKLGNLSFADVKAYPQTLERLKAMKLPIKTVVGGHDSPLHGPELIDHYEALIKAASQS

> <PDB ID(s) of Target Chain>


> <UniProt (SwissProt) Recommended Name of Target Chain>


> <UniProt (SwissProt) Entry Name of Target Chain>


> <UniProt (SwissProt) Primary ID of Target Chain>


> <UniProt (SwissProt) Secondary ID(s) of Target Chain>


> <UniProt (SwissProt) Alternative ID(s) of Target Chain>


> <UniProt (TrEMBL) Submitted Name of Target Chain>
Beta-lactamase

> <UniProt (TrEMBL) Entry Name of Target Chain>
O31272_AERVE

> <UniProt (TrEMBL) Primary ID of Target Chain>
O31272

> <UniProt (TrEMBL) Secondary ID(s) of Target Chain>


> <UniProt (TrEMBL) Alternative ID(s) of Target Chain>


$$$$

  Mrv0541 11241407532D          

 22 22  0  0  0  0            999 V2000
   -2.7805    0.1291    0.0000 B   0  0  0  0  0  0  0  0  0  0  0  0
   -3.4949   -0.2834    0.0000 O   0  0  0  0  0  0  0  0  0  0  0  0
   -2.7805    0.9541    0.0000 O   0  0  0  0  0  0  0  0  0  0  0  0
   -2.0660   -0.2834    0.0000 C   0  0  0  0  0  0  0  0  0  0  0  0
   -1.3515    0.1291    0.0000 N   0  0  0  0  0  0  0  0  0  0  0  0
   -0.6371   -0.2834    0.0000 C   0  0  0  0  0  0  0  0  0  0  0  0
   -0.6371   -1.1084    0.0000 O   0  0  0  0  0  0  0  0  0  0  0  0
    0.0774    0.1291    0.0000 C   0  0  0  0  0  0  0  0  0  0  0  0
    0.7919   -0.2834    0.0000 N   0  0  0  0  0  0  0  0  0  0  0  0
    0.7919   -1.1084    0.0000 O   0  0  0  0  0  0  0  0  0  0  0  0
    1.5064   -1.5209    0.0000 C   0  0  0  0  0  0  0  0  0  0  0  0
    0.0774    0.9541    0.0000 C   0  0  0  0  0  0  0  0  0  0  0  0
   -0.5900    1.4391    0.0000 C   0  0  0  0  0  0  0  0  0  0  0  0
   -0.3351    2.2237    0.0000 S   0  0  0  0  0  0  0  0  0  0  0  0
    0.4899    2.2237    0.0000 C   0  0  0  0  0  0  0  0  0  0  0  0
    0.9748    2.8911    0.0000 N   0  0  0  0  0  0  0  0  0  0  0  0
    0.7449    1.4391    0.0000 N   0  0  0  0  0  0  0  0  0  0  0  0
    1.0939   -2.2353    0.0000 C   0  0  0  0  0  0  0  0  0  0  0  0
    1.9189   -0.8064    0.0000 C   0  0  0  0  0  0  0  0  0  0  0  0
    2.2208   -1.9334    0.0000 C   0  0  0  0  0  0  0  0  0  0  0  0
    2.9353   -1.5209    0.0000 O   0  0  0  0  0  0  0  0  0  0  0  0
    2.2208   -2.7584    0.0000 O   0  0  0  0  0  0  0  0  0  0  0  0
  1  2  1  0  0  0  0
  1  3  1  0  0  0  0
  1  4  1  0  0  0  0
  4  5  1  0  0  0  0
  6  5  1  0  0  0  0
  6  7  2  0  0  0  0
  6  8  1  0  0  0  0
  8  9  2  0  0  0  0
  8 12  1  0  0  0  0
  9 10  1  0  0  0  0
 11 10  1  0  0  0  0
 11 18  1  0  0  0  0
 11 19  1  0  0  0  0
 11 20  1  0  0  0  0
 12 13  2  0  0  0  0
 12 17  1  0  0  0  0
 13 14  1  0  0  0  0
 15 14  1  0  0  0  0
 15 16  1  0  0  0  0
 15 17  2  0  0  0  0
 20 21  2  0  0  0  0
 20 22  1  0  0  0  0
M  END
> <From>
www.bindingDB.org

> <BindingDB Reactant_set_id>
50845213

> <Ligand InChI>
InChI=1S/C10H15BN4O6S/c1-10(2,8(17)18)21-15-6(5-3-22-9(12)14-5)7(16)13-4-11(19)20/h3,19-20H,4H2,1-2H3,(H2,12,14)(H,13,16)(H,17,18)/b15-6-

> <Ligand InChI Key>
ZECCQELUYUPTSB-UUASQNMZSA-N

> <BindingDB MonomerID>
50370963

> <BindingDB Ligand Name>
CEFTAZIDIME BATSI

> <Target Name>
Beta-lactamase SHV-1

> <Target Source Organism According to Curator or DataSource>


> <Ki (nM)>
 2200

> <IC50 (nM)>


> <Kd (nM)>


> <EC50 (nM)>


> <kon (M-1-s-1)>


> <koff (s-1)>


> <pH>


> <Temp C>


> <Curation/DataSource>
ChEMBL

> <Article DOI>
10.1128/AAC.01293-06

> <BindingDB Entry DOI>
10.7270/Q2WW7JG6

> <PMID>
17220410

> <PubChem AID>


> <Patent Number>


> <Authors>
Thomson, JM; Prati, F; Bethel, CR; Bonomo, RA

> <Institution>
Veterans Affairs Medical Center

> <Link to Ligand in BindingDB>
http://www.bindingdb.org/bind/chemsearch/marvin/MolStructure.jsp?monomerid=50370963

> <Link to Ligand-Target Pair in BindingDB>
http://www.bindingdb.org/jsp/dbsearch/PrimarySearch_ki.jsp?energyterm=kJ/mole&tag=pol&polymerid=6997&target=Beta-lactamase+SHV-1&column=ki&startPg=0&Increment=50&submit=Search

> <Link to Ligand-Target Pair in BindingDB>
http://www.bindingdb.org/jsp/dbsearch/PrimarySearch_ki.jsp?energyterm=kJ/mole&tag=r21&monomerid=50370963&enzyme=Beta-lactamase+SHV-1&column=ki&startPg=0&Increment=50&submit=Search

> <Ligand HET ID in PDB>
CB4

> <PDB ID(s) for Ligand-Target Complex>
1YLZ,1YLY,5CHM,5GLB,5GLD,1IEM,1M40,3MKE,6AFN,6AFP,4UA9,1JWV

> <PubChem CID of Ligand>
5849540

> <PubChem SID of Ligand>
160850064

> <ChEBI ID of Ligand>


> <ChEMBL ID of Ligand>


> <DrugBank ID of Ligand>
DB04035

> <IUPHAR_GRAC ID of Ligand>


> <KEGG ID of Ligand>


> <ZINC ID of Ligand>


> <Number of Protein Chains in Target (bigger than 1 implies a multichain complex)>
1

> <BindingDB Target Chain Sequence>
MRYIRLCIISLLATLPLAVHASPQPLEQIKLSESQLSGRVGMIEMDLASGRTLTAWRADERFPMMSTFKV
VLCGAVLARVDAGDEQLERKIHYRQQDLVDYSPVSEKHLADGMTVGELCAAAITMSDNSAANLLLATVGG
PAGLTAFLRQIGDNVTRLDRWETELNEALPGDARDTTTPASMAATLRKLLTSQRLSARSQRQLLQWMVDD
RVAGPLIRSVLPAGWFIADKTGAGERGARGIVALLGPNNKAERIVVIYLRDTPASMAERNQQIAGIGAAL
IEHWQR

> <PDB ID(s) of Target Chain>
1ONG,1Q2P,1SHV,1VM1,2G2U,2H5S,2ZD8,3C4O,3C4P,3D4F,3MKE,3MKF,3MXR,3MXS,4FH4,4GD6,4GD8,4GDB,4JPM,4MBF,4R3B,4ZAM,5EE8

> <UniProt (SwissProt) Recommended Name of Target Chain>
Beta-lactamase SHV-1

> <UniProt (SwissProt) Entry Name of Target Chain>
BLA1_KLEPN

> <UniProt (SwissProt) Primary ID of Target Chain>
P0AD64

> <UniProt (SwissProt) Secondary ID(s) of Target Chain>
O07941 P14557 P23982

> <UniProt (SwissProt) Alternative ID(s) of Target Chain>


> <UniProt (TrEMBL) Submitted Name of Target Chain>


> <UniProt (TrEMBL) Entry Name of Target Chain>


> <UniProt (TrEMBL) Primary ID of Target Chain>


> <UniProt (TrEMBL) Secondary ID(s) of Target Chain>


> <UniProt (TrEMBL) Alternative ID(s) of Target Chain>


$$$$

  Mrv0541 11231414582D          

 25 28  0  0  0  0            999 V2000
   23.6616  -11.1991    0.0000 C   0  0  0  0  0  0  0  0  0  0  0  0
   23.6605  -12.0262    0.0000 C   0  0  0  0  0  0  0  0  0  0  0  0
   24.3747  -12.4391    0.0000 C   0  0  0  0  0  0  0  0  0  0  0  0
   24.3730  -10.7864    0.0000 C   0  0  0  0  0  0  0  0  0  0  0  0
   25.0879  -11.1957    0.0000 C   0  0  0  0  0  0  0  0  0  0  0  0
   25.0879  -12.0217    0.0000 C   0  0  0  0  0  0  0  0  0  0  0  0
   25.8736  -12.2770    0.0000 C   0  0  0  0  0  0  0  0  0  0  0  0
   26.3591  -11.6086    0.0000 O   0  0  0  0  0  0  0  0  0  0  0  0
   25.8735  -10.9405    0.0000 B   0  0  0  0  0  0  0  0  0  0  0  0
   26.1283  -10.1558    0.0000 O   0  0  0  0  0  0  0  0  0  0  0  0
   22.9470  -10.7868    0.0000 O   0  0  0  0  0  0  0  0  0  0  0  0
   22.2327  -11.1996    0.0000 C   0  0  0  0  0  0  0  0  0  0  0  0
   21.5200  -10.7831    0.0000 C   0  0  0  0  0  0  0  0  0  0  0  0
   20.8062  -11.1951    0.0000 C   0  0  0  0  0  0  0  0  0  0  0  0
   20.8061  -12.0210    0.0000 C   0  0  0  0  0  0  0  0  0  0  0  0
   21.5256  -12.4330    0.0000 C   0  0  0  0  0  0  0  0  0  0  0  0
   22.2365  -12.0186    0.0000 C   0  0  0  0  0  0  0  0  0  0  0  0
   20.0918  -10.7825    0.0000 O   0  0  0  0  0  0  0  0  0  0  0  0
   20.0919   -9.9576    0.0000 C   0  0  0  0  0  0  0  0  0  0  0  0
   20.8064   -9.5452    0.0000 C   0  0  0  0  0  0  0  0  0  0  0  0
   21.5170   -9.9584    0.0000 C   0  0  0  0  0  0  0  0  0  0  0  0
   22.2309   -9.5467    0.0000 C   0  0  0  0  0  0  0  0  0  0  0  0
   22.2315   -8.7208    0.0000 C   0  0  0  0  0  0  0  0  0  0  0  0
   21.5121   -8.3085    0.0000 C   0  0  0  0  0  0  0  0  0  0  0  0
   20.8010   -8.7225    0.0000 C   0  0  0  0  0  0  0  0  0  0  0  0
 11 12  1  0  0  0  0
  2  3  1  0  0  0  0
 12 13  2  0  0  0  0
  3  6  2  0  0  0  0
 13 14  1  0  0  0  0
  1  2  2  0  0  0  0
 14 15  2  0  0  0  0
  5  4  2  0  0  0  0
 15 16  1  0  0  0  0
  6  7  1  0  0  0  0
 16 17  2  0  0  0  0
 17 12  1  0  0  0  0
  7  8  1  0  0  0  0
 14 18  1  0  0  0  0
  8  9  1  0  0  0  0
 18 19  1  0  0  0  0
  9  5  1  0  0  0  0
 19 20  1  0  0  0  0
  4  1  1  0  0  0  0
 20 21  2  0  0  0  0
  9 10  1  0  0  0  0
 21 22  1  0  0  0  0
  5  6  1  0  0  0  0
 22 23  2  0  0  0  0
  1 11  1  0  0  0  0
 23 24  1  0  0  0  0
 24 25  2  0  0  0  0
 25 20  1  0  0  0  0
M  END
> <From>
www.bindingDB.org

> <BindingDB Reactant_set_id>
50629871

> <Ligand InChI>
InChI=1S/C20H17BO4/c22-21-20-12-19(10-9-16(20)14-24-21)25-18-8-4-7-17(11-18)23-13-15-5-2-1-3-6-15/h1-12,22H,13-14H2

> <Ligand InChI Key>
CLWFJUVBEYCVES-UHFFFAOYSA-N

> <BindingDB MonomerID>
50339860

> <BindingDB Ligand Name>
6-(3-(benzyloxy)phenoxy)benzo[c][1,2]oxaborol-1(3H)-ol::CHEMBL1761266

> <Target Name>
Beta-lactamase

> <Target Source Organism According to Curator or DataSource>
Enterobacter cloacae

> <Ki (nM)>
 2270

> <IC50 (nM)>


> <Kd (nM)>


> <EC50 (nM)>


> <kon (M-1-s-1)>


> <koff (s-1)>


> <pH>


> <Temp C>


> <Curation/DataSource>
ChEMBL

> <Article DOI>
10.1016/j.bmcl.2011.02.024

> <BindingDB Entry DOI>
10.7270/Q2G44QK5

> <PMID>
21392987

> <PubChem AID>


> <Patent Number>


> <Authors>
Xia, Y; Cao, K; Zhou, Y; Alley, MR; Rock, F; Mohan, M; Meewan, M; Baker, SJ; Lux, S; Ding, CZ; Jia, G; Kully, M; Plattner, JJ

> <Institution>
Anacor Pharmaceuticals Inc

> <Link to Ligand in BindingDB>
http://www.bindingdb.org/bind/chemsearch/marvin/MolStructure.jsp?monomerid=50339860

> <Link to Ligand-Target Pair in BindingDB>
http://www.bindingdb.org/jsp/dbsearch/PrimarySearch_ki.jsp?energyterm=kJ/mole&tag=pol&polymerid=50002394&target=Beta-lactamase&column=ki&startPg=0&Increment=50&submit=Search

> <Link to Ligand-Target Pair in BindingDB>
http://www.bindingdb.org/jsp/dbsearch/PrimarySearch_ki.jsp?energyterm=kJ/mole&tag=r21&monomerid=50339860&enzyme=Beta-lactamase&column=ki&startPg=0&Increment=50&submit=Search

> <Ligand HET ID in PDB>


> <PDB ID(s) for Ligand-Target Complex>


> <PubChem CID of Ligand>
54582256

> <PubChem SID of Ligand>
131342796

> <ChEBI ID of Ligand>


> <ChEMBL ID of Ligand>
CHEMBL1761266

> <DrugBank ID of Ligand>


> <IUPHAR_GRAC ID of Ligand>


> <KEGG ID of Ligand>


> <ZINC ID of Ligand>


> <Number of Protein Chains in Target (bigger than 1 implies a multichain complex)>
1

> <BindingDB Target Chain Sequence>
MMRKSLCCALLLGISCSALATPVSEKQLAEVVANTITPLMKAQSVPGMAVAVIYQGKPHYYTFGKADIAANKPVTPQTLFELGSISKTFTGVLGGDAIARGEISLDDAVTRYWPQLTGKQWQGIRMLDLATYTAGGLPLQVPDEVTDNASLLRFYQNWQPQWKPGTTRLYANASIGLFGALAVKPSGMPYEQAMTTRVLKPLKLDHTWINVPKAEEAHYAWGYRDGKAVRVSPGMLDAQAYGVKTNVQDMANWVMANMAPENVADASLKQGIALAQSRYWRIGSMYQGLGWEMLNWPVEANTVVEGSDSKVALAPLPVAEVNPPAPPVKASWVHKTGSTGGFGSYVAFIPEKQIGIVMLANTSYPNPARVEAAYHILEALQ

> <PDB ID(s) of Target Chain>
1XX2,2Q9M,2Q9N,7TI1

> <UniProt (SwissProt) Recommended Name of Target Chain>
Beta-lactamase

> <UniProt (SwissProt) Entry Name of Target Chain>
AMPC_ENTCL

> <UniProt (SwissProt) Primary ID of Target Chain>
P05364

> <UniProt (SwissProt) Secondary ID(s) of Target Chain>


> <UniProt (SwissProt) Alternative ID(s) of Target Chain>


> <UniProt (TrEMBL) Submitted Name of Target Chain>


> <UniProt (TrEMBL) Entry Name of Target Chain>


> <UniProt (TrEMBL) Primary ID of Target Chain>


> <UniProt (TrEMBL) Secondary ID(s) of Target Chain>


> <UniProt (TrEMBL) Alternative ID(s) of Target Chain>


$$$$

  Mrv0541 11171616312D          

 26 28  0  0  0  0            999 V2000
    1.5039   -1.6398    0.0000 N   0  0  0  0  0  0  0  0  0  0  0  0
    2.3105   -1.8126    0.0000 N   0  0  0  0  0  0  0  0  0  0  0  0
    2.7242   -1.0988    0.0000 C   0  0  0  0  0  0  0  0  0  0  0  0
    2.1731   -0.4848    0.0000 N   0  0  0  0  0  0  0  0  0  0  0  0
    1.4293   -0.8252    0.0000 C   0  0  0  0  0  0  0  0  0  0  0  0
    3.5436   -1.0122    0.0000 S   0  0  0  0  0  0  0  0  0  0  0  0
    3.8795   -0.2582    0.0000 C   0  0  0  0  0  0  0  0  0  0  0  0
    4.7004   -0.1715    0.0000 C   0  0  0  0  0  0  0  0  0  0  0  0
    5.0362    0.5826    0.0000 N   0  0  0  0  0  0  0  0  0  0  0  0
    5.0884   -0.7054    0.0000 O   0  0  0  0  0  0  0  0  0  0  0  0
    5.8571    0.6692    0.0000 C   0  0  0  0  0  0  0  0  0  0  0  0
    0.7144   -0.4125    0.0000 C   0  0  0  0  0  0  0  0  0  0  0  0
    0.7144    0.4125    0.0000 C   0  0  0  0  0  0  0  0  0  0  0  0
    0.0000    0.8250    0.0000 C   0  0  0  0  0  0  0  0  0  0  0  0
   -0.7144    0.4125    0.0000 C   0  0  0  0  0  0  0  0  0  0  0  0
   -0.7144   -0.4125    0.0000 C   0  0  0  0  0  0  0  0  0  0  0  0
    0.0000   -0.8250    0.0000 C   0  0  0  0  0  0  0  0  0  0  0  0
    1.4285    0.8267    0.0000 C   0  0  0  0  0  0  0  0  0  0  0  0
    2.0006    0.4977    0.0000 O   0  0  0  0  0  0  0  0  0  0  0  0
    1.4275    1.4867    0.0000 O   0  0  0  0  0  0  0  0  0  0  0  0
    6.1939    1.4224    0.0000 C   0  0  0  0  0  0  0  0  0  0  0  0
    7.0145    1.5073    0.0000 C   0  0  0  0  0  0  0  0  0  0  0  0
    7.4984    0.8392    0.0000 C   0  0  0  0  0  0  0  0  0  0  0  0
    7.1617    0.0860    0.0000 C   0  0  0  0  0  0  0  0  0  0  0  0
    6.3411    0.0010    0.0000 C   0  0  0  0  0  0  0  0  0  0  0  0
    5.8068    1.9570    0.0000 Cl  0  0  0  0  0  0  0  0  0  0  0  0
  1  2  4  0  0  0  0
  2  3  4  0  0  0  0
  3  4  4  0  0  0  0
  4  5  4  0  0  0  0
  5  1  4  0  0  0  0
  3  6  1  0  0  0  0
  6  7  1  0  0  0  0
  7  8  1  0  0  0  0
  8  9  1  0  0  0  0
  8 10  2  0  0  0  0
  9 11  1  0  0  0  0
 12 13  4  0  0  0  0
 13 14  4  0  0  0  0
 14 15  4  0  0  0  0
 15 16  4  0  0  0  0
 16 17  4  0  0  0  0
 17 12  4  0  0  0  0
  5 12  1  0  0  0  0
 18 19  1  0  0  0  0
 18 20  2  0  0  0  0
 13 18  1  0  0  0  0
 11 21  4  0  0  0  0
 21 22  4  0  0  0  0
 22 23  4  0  0  0  0
 23 24  4  0  0  0  0
 24 25  4  0  0  0  0
 25 11  4  0  0  0  0
 21 26  1  0  0  0  0
M  STY  1   1 DAT
M  SAL   1  1   4
M  SDT   1 MRV_IMPLICIT_H                                        
M  SDD   1     0.0000    0.0000    DR    ALL  0       0  
M  SED   1 IMPL_H1
M  END
> <From>
www.bindingDB.org

> <BindingDB Reactant_set_id>
50342708

> <Ligand InChI>
InChI=1S/C17H13ClN4O3S/c18-12-7-3-4-8-13(12)19-14(23)9-26-17-20-15(21-22-17)10-5-1-2-6-11(10)16(24)25/h1-8H,9H2,(H,19,23)(H,24,25)(H,20,21,22)

> <Ligand InChI Key>
PHUGPXWDZZSZJS-UHFFFAOYSA-N

> <BindingDB MonomerID>
50089385

> <BindingDB Ligand Name>
CHEMBL3577967

> <Target Name>
Beta-lactamase

> <Target Source Organism According to Curator or DataSource>


> <Ki (nM)>
 2300

> <IC50 (nM)>


> <Kd (nM)>


> <EC50 (nM)>


> <kon (M-1-s-1)>


> <koff (s-1)>


> <pH>


> <Temp C>


> <Curation/DataSource>
ChEMBL

> <Article DOI>
10.1021/ml500534c

> <BindingDB Entry DOI>
10.7270/Q2XP76P0

> <PMID>
25893049

> <PubChem AID>


> <Patent Number>


> <Authors>
Yang, SK; Kang, JS; Oelschlaeger, P; Yang, KW

> <Institution>
North-West University

> <Link to Ligand in BindingDB>
http://www.bindingdb.org/bind/chemsearch/marvin/MolStructure.jsp?monomerid=50089385

> <Link to Ligand-Target Pair in BindingDB>
http://www.bindingdb.org/jsp/dbsearch/PrimarySearch_ki.jsp?energyterm=kJ/mole&tag=pol&polymerid=50006888&target=Beta-lactamase&column=ki&startPg=0&Increment=50&submit=Search

> <Link to Ligand-Target Pair in BindingDB>
http://www.bindingdb.org/jsp/dbsearch/PrimarySearch_ki.jsp?energyterm=kJ/mole&tag=r21&monomerid=50089385&enzyme=Beta-lactamase&column=ki&startPg=0&Increment=50&submit=Search

> <Ligand HET ID in PDB>


> <PDB ID(s) for Ligand-Target Complex>


> <PubChem CID of Ligand>
122178137

> <PubChem SID of Ligand>
318472581

> <ChEBI ID of Ligand>


> <ChEMBL ID of Ligand>
CHEMBL3577967

> <DrugBank ID of Ligand>


> <IUPHAR_GRAC ID of Ligand>


> <KEGG ID of Ligand>


> <ZINC ID of Ligand>


> <Number of Protein Chains in Target (bigger than 1 implies a multichain complex)>
1

> <BindingDB Target Chain Sequence>
MMKGWIKCGLAGAVVLMASFWGGSVRAAGMSLTQQVSGPVYVVEDNYYVQENSMVYFGAKGVTVVGATWTPDTARELHKLIKRVSRKPVLEVINTNYHTDRAGGNAYWKSIGAKVISTRQTRDLMKSDWAEIVAFTRKGLPEYPDLPLVLPNVVHEGDFTLQEGKLRAFYLGPAHSPDGIFVYFPDQQVLYGNCILKEKLGNLSFADVKAYPQTLERLKAMKLPIKTVVGGHDSPLHGPELIDHYEALIKAASQS

> <PDB ID(s) of Target Chain>


> <UniProt (SwissProt) Recommended Name of Target Chain>


> <UniProt (SwissProt) Entry Name of Target Chain>


> <UniProt (SwissProt) Primary ID of Target Chain>


> <UniProt (SwissProt) Secondary ID(s) of Target Chain>


> <UniProt (SwissProt) Alternative ID(s) of Target Chain>


> <UniProt (TrEMBL) Submitted Name of Target Chain>
Beta-lactamase

> <UniProt (TrEMBL) Entry Name of Target Chain>
O31272_AERVE

> <UniProt (TrEMBL) Primary ID of Target Chain>
O31272

> <UniProt (TrEMBL) Secondary ID(s) of Target Chain>


> <UniProt (TrEMBL) Alternative ID(s) of Target Chain>


$$$$
Captopril
  Mrv0541 11181423452D          

 14 14  0  0  1  0            999 V2000
    6.9895   -8.2989    0.0000 S   0  0  0  0  0  0  0  0  0  0  0  0
    9.1330   -7.0613    0.0000 O   0  0  0  0  0  0  0  0  0  0  0  0
   10.4837   -5.0417    0.0000 O   0  0  0  0  0  0  0  0  0  0  0  0
   10.0421   -6.4008    0.0000 O   0  0  0  0  0  0  0  0  0  0  0  0
    8.4185   -5.8238    0.0000 N   0  0  0  0  0  0  0  0  0  0  0  0
    9.0860   -5.3389    0.0000 C   0  0  1  0  0  0  0  0  0  0  0  0
    8.8310   -4.5542    0.0000 C   0  0  0  0  0  0  0  0  0  0  0  0
    8.0060   -4.5542    0.0000 C   0  0  0  0  0  0  0  0  0  0  0  0
    7.7510   -5.3389    0.0000 C   0  0  0  0  0  0  0  0  0  0  0  0
    8.4185   -6.6488    0.0000 C   0  0  0  0  0  0  0  0  0  0  0  0
    7.7040   -7.0613    0.0000 C   0  0  1  0  0  0  0  0  0  0  0  0
    9.8705   -5.5938    0.0000 C   0  0  0  0  0  0  0  0  0  0  0  0
    7.7040   -7.8863    0.0000 C   0  0  0  0  0  0  0  0  0  0  0  0
    6.9895   -6.6488    0.0000 C   0  0  0  0  0  0  0  0  0  0  0  0
  1 13  1  0  0  0  0
  2 10  2  0  0  0  0
  3 12  1  0  0  0  0
  4 12  2  0  0  0  0
  6  5  1  0  0  0  0
  5  9  1  0  0  0  0
  5 10  1  0  0  0  0
  6  7  1  0  0  0  0
  6 12  1  1  0  0  0
  7  8  1  0  0  0  0
  8  9  1  0  0  0  0
 11 10  1  0  0  0  0
 11 13  1  0  0  0  0
 11 14  1  1  0  0  0
M  END
> <From>
www.bindingDB.org

> <BindingDB Reactant_set_id>
51029284

> <Ligand InChI>
InChI=1S/C9H15NO3S/c1-6(5-14)8(11)10-4-2-3-7(10)9(12)13/h6-7,14H,2-5H2,1H3,(H,12,13)/t6-,7+/m1/s1

> <Ligand InChI Key>
FAKRSMQSSFJEIM-RQJHMYQMSA-N

> <BindingDB MonomerID>
21642

> <BindingDB Ligand Name>
(2S)-1-[(2S)-2-methyl-3-sulfanylpropanoyl]pyrrolidine-2-carboxylic acid::CHEMBL1560::Capozide::Captopril::Lopirin::SQ 14,225::SQ14534::US11491146, Compound L-Captopril

> <Target Name>
Beta-lactamase

> <Target Source Organism According to Curator or DataSource>
Pseudomonas aeruginosa

> <Ki (nM)>
 2400

> <IC50 (nM)>


> <Kd (nM)>


> <EC50 (nM)>


> <kon (M-1-s-1)>


> <koff (s-1)>


> <pH>


> <Temp C>


> <Curation/DataSource>
ChEMBL

> <Article DOI>
10.1016/j.bmcl.2012.08.012

> <BindingDB Entry DOI>
10.7270/Q2CF9RCZ

> <PMID>
22921080

> <PubChem AID>


> <Patent Number>


> <Authors>
Chen, P; Horton, LB; Mikulski, RL; Deng, L; Sundriyal, S; Palzkill, T; Song, Y

> <Institution>
Baylor College of Medicine

> <Link to Ligand in BindingDB>
http://www.bindingdb.org/bind/chemsearch/marvin/MolStructure.jsp?monomerid=21642

> <Link to Ligand-Target Pair in BindingDB>
http://www.bindingdb.org/jsp/dbsearch/PrimarySearch_ki.jsp?energyterm=kJ/mole&tag=pol&polymerid=4684&target=Beta-lactamase&column=ki&startPg=0&Increment=50&submit=Search

> <Link to Ligand-Target Pair in BindingDB>
http://www.bindingdb.org/jsp/dbsearch/PrimarySearch_ki.jsp?energyterm=kJ/mole&tag=r21&monomerid=21642&enzyme=Beta-lactamase&column=ki&startPg=0&Increment=50&submit=Search

> <Ligand HET ID in PDB>
X8Z

> <PDB ID(s) for Ligand-Target Complex>
4C1D,4C1F,4C1H,4DPR,3LUS,6V61,5ZIO,4EXS,2X8Z,6U10,5AYA,4PQA,4C2P,1J37

> <PubChem CID of Ligand>
44093

> <PubChem SID of Ligand>
49700752

> <ChEBI ID of Ligand>
3380

> <ChEMBL ID of Ligand>
CHEMBL1560

> <DrugBank ID of Ligand>
DB01197

> <IUPHAR_GRAC ID of Ligand>
5158

> <KEGG ID of Ligand>


> <ZINC ID of Ligand>
ZINC00057001

> <Number of Protein Chains in Target (bigger than 1 implies a multichain complex)>
1

> <BindingDB Target Chain Sequence>
MSKLSVFFIFLFCSIATAAESLPDLKIEKLDEGVYVHTSFEEVNGWGVVPKHGLVVLVNAEAYLIDTPFTAKDTEKLVTWFVERGYKIKGSISSHFHSDSTGGIEWLNSRSIPTYASELTNELLKKDGKVQATNSFSGVNYWLVKNKIEVFYPGPGHTPDNVVVWLPERKILFGGCFIKPYGLGNLGDANIEAWPKSAKLLKSKYGKAKLVVPSHSEVGDASLLKLTLEQAVKGLNESKKPSKPSN

> <PDB ID(s) of Target Chain>
1DD6,1DDK,1JJE,1JJT,1VGN,2DOO,3WXC,4C1F,4C1G,4UAM,5EV6,5EV8,5EWA,5Y5B,6JED,6LBL,6ZYR,6ZYS,7DTM,7XHW,7YH9,7YHA

> <UniProt (SwissProt) Recommended Name of Target Chain>


> <UniProt (SwissProt) Entry Name of Target Chain>


> <UniProt (SwissProt) Primary ID of Target Chain>


> <UniProt (SwissProt) Secondary ID(s) of Target Chain>


> <UniProt (SwissProt) Alternative ID(s) of Target Chain>


> <UniProt (TrEMBL) Submitted Name of Target Chain>
Beta-lactamase

> <UniProt (TrEMBL) Entry Name of Target Chain>
Q79MP6_PSEAI

> <UniProt (TrEMBL) Primary ID of Target Chain>
Q79MP6

> <UniProt (TrEMBL) Secondary ID(s) of Target Chain>


> <UniProt (TrEMBL) Alternative ID(s) of Target Chain>


$$$$

  Mrv0541 11171616312D          

 26 28  0  0  0  0            999 V2000
    1.5039   -1.6398    0.0000 N   0  0  0  0  0  0  0  0  0  0  0  0
    2.3105   -1.8126    0.0000 N   0  0  0  0  0  0  0  0  0  0  0  0
    2.7242   -1.0988    0.0000 C   0  0  0  0  0  0  0  0  0  0  0  0
    2.1731   -0.4848    0.0000 N   0  0  0  0  0  0  0  0  0  0  0  0
    1.4293   -0.8252    0.0000 C   0  0  0  0  0  0  0  0  0  0  0  0
    3.5436   -1.0122    0.0000 S   0  0  0  0  0  0  0  0  0  0  0  0
    3.8795   -0.2582    0.0000 C   0  0  0  0  0  0  0  0  0  0  0  0
    4.7004   -0.1715    0.0000 C   0  0  0  0  0  0  0  0  0  0  0  0
    5.0362    0.5826    0.0000 N   0  0  0  0  0  0  0  0  0  0  0  0
    5.0884   -0.7054    0.0000 O   0  0  0  0  0  0  0  0  0  0  0  0
    5.8571    0.6692    0.0000 C   0  0  0  0  0  0  0  0  0  0  0  0
    0.7144   -0.4125    0.0000 C   0  0  0  0  0  0  0  0  0  0  0  0
    0.7144    0.4125    0.0000 C   0  0  0  0  0  0  0  0  0  0  0  0
    0.0000    0.8250    0.0000 C   0  0  0  0  0  0  0  0  0  0  0  0
   -0.7144    0.4125    0.0000 C   0  0  0  0  0  0  0  0  0  0  0  0
   -0.7144   -0.4125    0.0000 C   0  0  0  0  0  0  0  0  0  0  0  0
    0.0000   -0.8250    0.0000 C   0  0  0  0  0  0  0  0  0  0  0  0
    1.4285    0.8267    0.0000 C   0  0  0  0  0  0  0  0  0  0  0  0
    2.0006    0.4977    0.0000 O   0  0  0  0  0  0  0  0  0  0  0  0
    1.4275    1.4867    0.0000 O   0  0  0  0  0  0  0  0  0  0  0  0
    6.1939    1.4224    0.0000 C   0  0  0  0  0  0  0  0  0  0  0  0
    7.0145    1.5073    0.0000 C   0  0  0  0  0  0  0  0  0  0  0  0
    7.4984    0.8392    0.0000 C   0  0  0  0  0  0  0  0  0  0  0  0
    7.1617    0.0860    0.0000 C   0  0  0  0  0  0  0  0  0  0  0  0
    6.3411    0.0010    0.0000 C   0  0  0  0  0  0  0  0  0  0  0  0
    7.5488   -0.4485    0.0000 Cl  0  0  0  0  0  0  0  0  0  0  0  0
  1  2  4  0  0  0  0
  2  3  4  0  0  0  0
  3  4  4  0  0  0  0
  4  5  4  0  0  0  0
  5  1  4  0  0  0  0
  3  6  1  0  0  0  0
  6  7  1  0  0  0  0
  7  8  1  0  0  0  0
  8  9  1  0  0  0  0
  8 10  2  0  0  0  0
  9 11  1  0  0  0  0
 12 13  4  0  0  0  0
 13 14  4  0  0  0  0
 14 15  4  0  0  0  0
 15 16  4  0  0  0  0
 16 17  4  0  0  0  0
 17 12  4  0  0  0  0
  5 12  1  0  0  0  0
 18 19  1  0  0  0  0
 18 20  2  0  0  0  0
 13 18  1  0  0  0  0
 11 21  4  0  0  0  0
 21 22  4  0  0  0  0
 22 23  4  0  0  0  0
 23 24  4  0  0  0  0
 24 25  4  0  0  0  0
 25 11  4  0  0  0  0
 24 26  1  0  0  0  0
M  STY  1   1 DAT
M  SAL   1  1   4
M  SDT   1 MRV_IMPLICIT_H                                        
M  SDD   1     0.0000    0.0000    DR    ALL  0       0  
M  SED   1 IMPL_H1
M  END
> <From>
www.bindingDB.org

> <BindingDB Reactant_set_id>
50342709

> <Ligand InChI>
InChI=1S/C17H13ClN4O3S/c18-10-4-3-5-11(8-10)19-14(23)9-26-17-20-15(21-22-17)12-6-1-2-7-13(12)16(24)25/h1-8H,9H2,(H,19,23)(H,24,25)(H,20,21,22)

> <Ligand InChI Key>
UUMDHRCAFDKDDF-UHFFFAOYSA-N

> <BindingDB MonomerID>
50089386

> <BindingDB Ligand Name>
CHEMBL3577968

> <Target Name>
Beta-lactamase

> <Target Source Organism According to Curator or DataSource>


> <Ki (nM)>
 2400

> <IC50 (nM)>


> <Kd (nM)>


> <EC50 (nM)>


> <kon (M-1-s-1)>


> <koff (s-1)>


> <pH>


> <Temp C>


> <Curation/DataSource>
ChEMBL

> <Article DOI>
10.1021/ml500534c

> <BindingDB Entry DOI>
10.7270/Q2XP76P0

> <PMID>
25893049

> <PubChem AID>


> <Patent Number>


> <Authors>
Yang, SK; Kang, JS; Oelschlaeger, P; Yang, KW

> <Institution>
North-West University

> <Link to Ligand in BindingDB>
http://www.bindingdb.org/bind/chemsearch/marvin/MolStructure.jsp?monomerid=50089386

> <Link to Ligand-Target Pair in BindingDB>
http://www.bindingdb.org/jsp/dbsearch/PrimarySearch_ki.jsp?energyterm=kJ/mole&tag=pol&polymerid=50006888&target=Beta-lactamase&column=ki&startPg=0&Increment=50&submit=Search

> <Link to Ligand-Target Pair in BindingDB>
http://www.bindingdb.org/jsp/dbsearch/PrimarySearch_ki.jsp?energyterm=kJ/mole&tag=r21&monomerid=50089386&enzyme=Beta-lactamase&column=ki&startPg=0&Increment=50&submit=Search

> <Ligand HET ID in PDB>


> <PDB ID(s) for Ligand-Target Complex>


> <PubChem CID of Ligand>
122178138

> <PubChem SID of Ligand>
318472582

> <ChEBI ID of Ligand>


> <ChEMBL ID of Ligand>
CHEMBL3577968

> <DrugBank ID of Ligand>


> <IUPHAR_GRAC ID of Ligand>


> <KEGG ID of Ligand>


> <ZINC ID of Ligand>


> <Number of Protein Chains in Target (bigger than 1 implies a multichain complex)>
1

> <BindingDB Target Chain Sequence>
MMKGWIKCGLAGAVVLMASFWGGSVRAAGMSLTQQVSGPVYVVEDNYYVQENSMVYFGAKGVTVVGATWTPDTARELHKLIKRVSRKPVLEVINTNYHTDRAGGNAYWKSIGAKVISTRQTRDLMKSDWAEIVAFTRKGLPEYPDLPLVLPNVVHEGDFTLQEGKLRAFYLGPAHSPDGIFVYFPDQQVLYGNCILKEKLGNLSFADVKAYPQTLERLKAMKLPIKTVVGGHDSPLHGPELIDHYEALIKAASQS

> <PDB ID(s) of Target Chain>


> <UniProt (SwissProt) Recommended Name of Target Chain>


> <UniProt (SwissProt) Entry Name of Target Chain>


> <UniProt (SwissProt) Primary ID of Target Chain>


> <UniProt (SwissProt) Secondary ID(s) of Target Chain>


> <UniProt (SwissProt) Alternative ID(s) of Target Chain>


> <UniProt (TrEMBL) Submitted Name of Target Chain>
Beta-lactamase

> <UniProt (TrEMBL) Entry Name of Target Chain>
O31272_AERVE

> <UniProt (TrEMBL) Primary ID of Target Chain>
O31272

> <UniProt (TrEMBL) Secondary ID(s) of Target Chain>


> <UniProt (TrEMBL) Alternative ID(s) of Target Chain>


$$$$
 
     RDKit          2D

 18 18  0  0  0  0  0  0  0  0999 V2000
   13.5801   -5.9763    0.0000 C   0  0  0  0  0  0  0  0  0  0  0  0
   14.2878   -5.5636    0.0000 C   0  0  0  0  0  0  0  0  0  0  0  0
   14.9996   -5.9763    0.0000 N   0  0  0  0  0  0  0  0  0  0  0  0
   15.7115   -5.5636    0.0000 C   0  0  0  0  0  0  0  0  0  0  0  0
   16.4233   -5.9763    0.0000 B   0  0  0  0  0  0  0  0  0  0  0  0
   17.1351   -5.5636    0.0000 O   0  0  0  0  0  0  0  0  0  0  0  0
   16.4233   -6.7976    0.0000 O   0  0  0  0  0  0  0  0  0  0  0  0
   15.7115   -4.7464    0.0000 C   0  0  0  0  0  0  0  0  0  0  0  0
   14.2878   -4.7422    0.0000 O   0  0  0  0  0  0  0  0  0  0  0  0
   12.8734   -5.5618    0.0000 C   0  0  0  0  0  0  0  0  0  0  0  0
   12.1647   -5.9727    0.0000 S   0  0  0  0  0  0  0  0  0  0  0  0
   13.5780   -6.7935    0.0000 C   0  0  0  0  0  0  0  0  0  0  0  0
   16.4204   -4.3409    0.0000 C   0  0  0  0  0  0  0  0  0  0  0  0
   16.4208   -3.5245    0.0000 C   0  0  0  0  0  0  0  0  0  0  0  0
   15.7131   -3.1130    0.0000 C   0  0  0  0  0  0  0  0  0  0  0  0
   15.0036   -3.5281    0.0000 C   0  0  0  0  0  0  0  0  0  0  0  0
   15.0068   -4.3432    0.0000 C   0  0  0  0  0  0  0  0  0  0  0  0
   15.7120   -2.2958    0.0000 C   0  0  0  0  0  0  0  0  0  0  0  0
  1  2  1  0
  2  3  1  0
  3  4  1  0
  4  5  1  1
  5  6  1  0
  5  7  1  0
  4  8  1  0
  2  9  2  0
  1 10  1  0
 10 11  1  0
  1 12  1  6
  8 13  2  0
 13 14  1  0
 14 15  2  0
 15 16  1  0
 16 17  2  0
 17  8  1  0
 15 18  1  0
M  END
> <From>
www.bindingDB.org

> <BindingDB Reactant_set_id>
51270530

> <Ligand InChI>
InChI=1S/C12H18BNO3S/c1-8-3-5-10(6-4-8)11(13(16)17)14-12(15)9(2)7-18/h3-6,9,11,16-18H,7H2,1-2H3,(H,14,15)/t9-,11+/m1/s1

> <Ligand InChI Key>
JPGSBBIDSWFANO-KOLCDFICSA-N

> <BindingDB MonomerID>
50518902

> <BindingDB Ligand Name>
CHEMBL4458011

> <Target Name>
Beta-lactamase TEM

> <Target Source Organism According to Curator or DataSource>


> <Ki (nM)>
 2410

> <IC50 (nM)>


> <Kd (nM)>


> <EC50 (nM)>


> <kon (M-1-s-1)>


> <koff (s-1)>


> <pH>


> <Temp C>


> <Curation/DataSource>
ChEMBL

> <Article DOI>
10.1021/acs.jmedchem.9b00735

> <BindingDB Entry DOI>
10.7270/Q22R3W2M

> <PMID>
31269398

> <PubChem AID>


> <Patent Number>


> <Authors>
Wang, YL; Liu, S; Yu, ZJ; Lei, Y; Huang, MY; Yan, YH; Ma, Q; Zheng, Y; Deng, H; Sun, Y; Wu, C; Yu, Y; Chen, Q; Wang, Z; Wu, Y; Li, GB

> <Institution>
Sichuan University

> <Link to Ligand in BindingDB>
http://www.bindingdb.org/bind/chemsearch/marvin/MolStructure.jsp?monomerid=50518902

> <Link to Ligand-Target Pair in BindingDB>
http://www.bindingdb.org/jsp/dbsearch/PrimarySearch_ki.jsp?energyterm=kJ/mole&tag=pol&polymerid=7704&target=Beta-lactamase+TEM&column=ki&startPg=0&Increment=50&submit=Search

> <Link to Ligand-Target Pair in BindingDB>
http://www.bindingdb.org/jsp/dbsearch/PrimarySearch_ki.jsp?energyterm=kJ/mole&tag=r21&monomerid=50518902&enzyme=Beta-lactamase+TEM&column=ki&startPg=0&Increment=50&submit=Search

> <Ligand HET ID in PDB>


> <PDB ID(s) for Ligand-Target Complex>


> <PubChem CID of Ligand>
155525928

> <PubChem SID of Ligand>
440727484

> <ChEBI ID of Ligand>


> <ChEMBL ID of Ligand>


> <DrugBank ID of Ligand>


> <IUPHAR_GRAC ID of Ligand>


> <KEGG ID of Ligand>


> <ZINC ID of Ligand>


> <Number of Protein Chains in Target (bigger than 1 implies a multichain complex)>
1

> <BindingDB Target Chain Sequence>
MSIQHFRVALIPFFAAFCLPVFAHPETLVKVKDAEDQLGARVGYIELDLNSGKILESFRPEERFPMMSTFKVLLCGAVLSRVDAGQEQLGRRIHYSQNDLVEYSPVTEKHLTDGMTVRELCSAAITMSDNTAANLLLTTIGGPKELTAFLHNMGDHVTRLDRWEPELNEAIPNDERDTTMPAAMATTLRKLLTGELLTLASRQQLIDWMEADKVAGPLLRSALPAGWFIADKSGAGERGSRGIIAALGPDGKPSRIVVIYTTGSQATMDERNRQIAEIGASLIKHW

> <PDB ID(s) of Target Chain>
1ERM,1ERO,1ERQ,1ESU,1FQG,1JTD,1JVJ,1JWP,1JWV,1LHY,1LI9,1M40,1NXY,1NY0,1NYM,1NYY,1PZO,1PZP,1S0W,1XPB,1YT4,2V1Z,2V20,3CMZ,3DTM,3JYI,3P98,4DXB,4DXC,4GKU,4ZJ2,5AQ8,5HVI,5HW1,5HW5,5NPO,6B2N,7QLP,7QNK,7U6Q,8DE0

> <UniProt (SwissProt) Recommended Name of Target Chain>
Beta-lactamase TEM

> <UniProt (SwissProt) Entry Name of Target Chain>
BLAT_ECOLX

> <UniProt (SwissProt) Primary ID of Target Chain>
P62593

> <UniProt (SwissProt) Secondary ID(s) of Target Chain>
P00810 Q47313

> <UniProt (SwissProt) Alternative ID(s) of Target Chain>


> <UniProt (TrEMBL) Submitted Name of Target Chain>


> <UniProt (TrEMBL) Entry Name of Target Chain>


> <UniProt (TrEMBL) Primary ID of Target Chain>


> <UniProt (TrEMBL) Secondary ID(s) of Target Chain>


> <UniProt (TrEMBL) Alternative ID(s) of Target Chain>


$$$$

  Mrv0541 11191401012D          

 32 34  0  0  0  0            999 V2000
   -0.7396    1.4778    0.0000 C   0  0  0  0  0  0  0  0  0  0  0  0
   -1.5646    1.4778    0.0000 C   0  0  0  0  0  0  0  0  0  0  0  0
   -1.9771    2.1922    0.0000 C   0  0  0  0  0  0  0  0  0  0  0  0
   -1.5646    2.9067    0.0000 C   0  0  0  0  0  0  0  0  0  0  0  0
   -0.7396    2.9067    0.0000 C   0  0  0  0  0  0  0  0  0  0  0  0
   -0.3271    2.1922    0.0000 C   0  0  0  0  0  0  0  0  0  0  0  0
   -1.9771    3.6212    0.0000 B   0  0  0  0  0  0  0  0  0  0  0  0
   -2.8021    3.6212    0.0000 O   0  0  0  0  0  0  0  0  0  0  0  0
   -1.5646    4.3356    0.0000 O   0  0  0  0  0  0  0  0  0  0  0  0
    0.4979    2.1922    0.0000 N   0  0  0  0  0  0  0  0  0  0  0  0
    0.9104    1.4778    0.0000 S   0  0  0  0  0  0  0  0  0  0  0  0
    0.4979    0.7633    0.0000 O   0  0  0  0  0  0  0  0  0  0  0  0
    1.7354    1.4778    0.0000 C   0  0  0  0  0  0  0  0  0  0  0  0
    1.3229    2.1923    0.0000 O   0  0  0  0  0  0  0  0  0  0  0  0
    2.9729    2.1923    0.0000 C   0  0  0  0  0  0  0  0  0  0  0  0
    2.1479    2.1923    0.0000 C   0  0  0  0  0  0  0  0  0  0  0  0
    2.1479    0.7633    0.0000 C   0  0  0  0  0  0  0  0  0  0  0  0
    2.9729    0.7634    0.0000 C   0  0  0  0  0  0  0  0  0  0  0  0
    3.3854    1.4778    0.0000 C   0  0  0  0  0  0  0  0  0  0  0  0
    3.3854    0.0489    0.0000 N   0  0  0  0  0  0  0  0  0  0  0  0
    4.2104    0.0489    0.0000 S   0  0  0  0  0  0  0  0  0  0  0  0
    4.7938   -0.5345    0.0000 C   0  0  0  0  0  0  0  0  0  0  0  0
    3.7979    0.7634    0.0000 O   0  0  0  0  0  0  0  0  0  0  0  0
    4.9249    0.4614    0.0000 O   0  0  0  0  0  0  0  0  0  0  0  0
    5.5906   -0.3209    0.0000 C   0  0  0  0  0  0  0  0  0  0  0  0
    4.5802   -1.3314    0.0000 C   0  0  0  0  0  0  0  0  0  0  0  0
    5.1636   -1.9147    0.0000 C   0  0  0  0  0  0  0  0  0  0  0  0
    5.9605   -1.7012    0.0000 C   0  0  0  0  0  0  0  0  0  0  0  0
    6.1740   -0.9043    0.0000 C   0  0  0  0  0  0  0  0  0  0  0  0
    6.5438   -2.2846    0.0000 C   0  0  0  0  0  0  0  0  0  0  0  0
    7.3407   -2.0710    0.0000 O   0  0  0  0  0  0  0  0  0  0  0  0
    6.3303   -3.0815    0.0000 O   0  0  0  0  0  0  0  0  0  0  0  0
  1  2  2  0  0  0  0
  2  3  1  0  0  0  0
  3  4  2  0  0  0  0
  4  5  1  0  0  0  0
  5  6  2  0  0  0  0
  1  6  1  0  0  0  0
  4  7  1  0  0  0  0
  7  8  1  0  0  0  0
  7  9  1  0  0  0  0
  6 10  1  0  0  0  0
 10 11  1  0  0  0  0
 11 12  2  0  0  0  0
 11 13  1  0  0  0  0
 11 14  2  0  0  0  0
 16 13  2  0  0  0  0
 13 17  1  0  0  0  0
 15 16  1  0  0  0  0
 17 18  2  0  0  0  0
 18 19  1  0  0  0  0
 15 19  2  0  0  0  0
 18 20  1  0  0  0  0
 20 21  1  0  0  0  0
 21 22  1  0  0  0  0
 21 23  2  0  0  0  0
 21 24  2  0  0  0  0
 25 22  2  0  0  0  0
 22 26  1  0  0  0  0
 26 27  2  0  0  0  0
 27 28  1  0  0  0  0
 28 29  2  0  0  0  0
 25 29  1  0  0  0  0
 28 30  1  0  0  0  0
 30 31  2  0  0  0  0
 30 32  1  0  0  0  0
M  END
> <From>
www.bindingDB.org

> <BindingDB Reactant_set_id>
74851

> <Ligand InChI>
InChI=1S/C19H17BN2O8S2/c23-19(24)13-7-9-17(10-8-13)31(27,28)22-16-5-2-6-18(12-16)32(29,30)21-15-4-1-3-14(11-15)20(25)26/h1-12,21-22,25-26H,(H,23,24)

> <Ligand InChI Key>
SXBYWLSPXCJQIF-UHFFFAOYSA-N

> <BindingDB MonomerID>
39856

> <BindingDB Ligand Name>
Amide and sulfonamide derivatives, 41

> <Target Name>
Beta-lactamase TEM

> <Target Source Organism According to Curator or DataSource>


> <Ki (nM)>
 2.5e+3

> <IC50 (nM)>


> <Kd (nM)>


> <EC50 (nM)>


> <kon (M-1-s-1)>


> <koff (s-1)>


> <pH>
7

> <Temp C>


> <Curation/DataSource>
Curated from the literature by BindingDB

> <Article DOI>
10.1016/S1074-5521(01)00034-5

> <BindingDB Entry DOI>
10.7270/Q27M06BZ

> <PMID>
11410378

> <PubChem AID>
aid1799472

> <Patent Number>


> <Authors>
Tondi, D; Powers, RA; Caselli, E; Negri, MC; Bl&aacute;zquez, J; Costi, MP; Shoichet, BK

> <Institution>
Northwestern University

> <Link to Ligand in BindingDB>
http://www.bindingdb.org/bind/chemsearch/marvin/MolStructure.jsp?monomerid=39856

> <Link to Ligand-Target Pair in BindingDB>
http://www.bindingdb.org/jsp/dbsearch/PrimarySearch_ki.jsp?energyterm=kJ/mole&tag=pol&polymerid=7704&target=Beta-lactamase+TEM&column=ki&startPg=0&Increment=50&submit=Search

> <Link to Ligand-Target Pair in BindingDB>
http://www.bindingdb.org/jsp/dbsearch/PrimarySearch_ki.jsp?energyterm=kJ/mole&tag=r21&monomerid=39856&enzyme=Beta-lactamase+TEM&column=ki&startPg=0&Increment=50&submit=Search

> <Ligand HET ID in PDB>


> <PDB ID(s) for Ligand-Target Complex>


> <PubChem CID of Ligand>
9869567

> <PubChem SID of Ligand>
123080164

> <ChEBI ID of Ligand>


> <ChEMBL ID of Ligand>


> <DrugBank ID of Ligand>


> <IUPHAR_GRAC ID of Ligand>


> <KEGG ID of Ligand>


> <ZINC ID of Ligand>


> <Number of Protein Chains in Target (bigger than 1 implies a multichain complex)>
1

> <BindingDB Target Chain Sequence>
MSIQHFRVALIPFFAAFCLPVFAHPETLVKVKDAEDQLGARVGYIELDLNSGKILESFRPEERFPMMSTFKVLLCGAVLSRVDAGQEQLGRRIHYSQNDLVEYSPVTEKHLTDGMTVRELCSAAITMSDNTAANLLLTTIGGPKELTAFLHNMGDHVTRLDRWEPELNEAIPNDERDTTMPAAMATTLRKLLTGELLTLASRQQLIDWMEADKVAGPLLRSALPAGWFIADKSGAGERGSRGIIAALGPDGKPSRIVVIYTTGSQATMDERNRQIAEIGASLIKHW

> <PDB ID(s) of Target Chain>
1ERM,1ERO,1ERQ,1ESU,1FQG,1JTD,1JVJ,1JWP,1JWV,1LHY,1LI9,1M40,1NXY,1NY0,1NYM,1NYY,1PZO,1PZP,1S0W,1XPB,1YT4,2V1Z,2V20,3CMZ,3DTM,3JYI,3P98,4DXB,4DXC,4GKU,4ZJ2,5AQ8,5HVI,5HW1,5HW5,5NPO,6B2N,7QLP,7QNK,7U6Q,8DE0

> <UniProt (SwissProt) Recommended Name of Target Chain>
Beta-lactamase TEM

> <UniProt (SwissProt) Entry Name of Target Chain>
BLAT_ECOLX

> <UniProt (SwissProt) Primary ID of Target Chain>
P62593

> <UniProt (SwissProt) Secondary ID(s) of Target Chain>
P00810 Q47313

> <UniProt (SwissProt) Alternative ID(s) of Target Chain>


> <UniProt (TrEMBL) Submitted Name of Target Chain>


> <UniProt (TrEMBL) Entry Name of Target Chain>


> <UniProt (TrEMBL) Primary ID of Target Chain>


> <UniProt (TrEMBL) Secondary ID(s) of Target Chain>


> <UniProt (TrEMBL) Alternative ID(s) of Target Chain>


$$$$

  Mrv0541 11191401012D          

 22 23  0  0  0  0            999 V2000
   -0.7396    1.4778    0.0000 C   0  0  0  0  0  0  0  0  0  0  0  0
   -1.5646    1.4778    0.0000 C   0  0  0  0  0  0  0  0  0  0  0  0
   -1.9771    2.1922    0.0000 C   0  0  0  0  0  0  0  0  0  0  0  0
   -1.5646    2.9067    0.0000 C   0  0  0  0  0  0  0  0  0  0  0  0
   -0.7396    2.9067    0.0000 C   0  0  0  0  0  0  0  0  0  0  0  0
   -0.3271    2.1922    0.0000 C   0  0  0  0  0  0  0  0  0  0  0  0
   -1.9771    3.6212    0.0000 B   0  0  0  0  0  0  0  0  0  0  0  0
   -2.8021    3.6212    0.0000 O   0  0  0  0  0  0  0  0  0  0  0  0
   -1.5646    4.3356    0.0000 O   0  0  0  0  0  0  0  0  0  0  0  0
    0.4979    2.1922    0.0000 N   0  0  0  0  0  0  0  0  0  0  0  0
    0.9104    1.4778    0.0000 C   0  0  0  0  0  0  0  0  0  0  0  0
    0.4979    0.7633    0.0000 O   0  0  0  0  0  0  0  0  0  0  0  0
    1.7354    1.4778    0.0000 C   0  0  0  0  0  0  0  0  0  0  0  0
    2.1479    2.1923    0.0000 C   0  0  0  0  0  0  0  0  0  0  0  0
    2.1479    0.7633    0.0000 C   0  0  0  0  0  0  0  0  0  0  0  0
    2.9729    0.7633    0.0000 C   0  0  0  0  0  0  0  0  0  0  0  0
    3.3854    1.4778    0.0000 C   0  0  0  0  0  0  0  0  0  0  0  0
    2.9729    2.1923    0.0000 C   0  0  0  0  0  0  0  0  0  0  0  0
    4.2104    1.4778    0.0000 C   0  0  0  0  0  0  0  0  0  0  0  0
    4.6229    2.1923    0.0000 F   0  0  0  0  0  0  0  0  0  0  0  0
    4.6229    0.7633    0.0000 F   0  0  0  0  0  0  0  0  0  0  0  0
    5.0354    1.4778    0.0000 F   0  0  0  0  0  0  0  0  0  0  0  0
  1  2  2  0  0  0  0
  2  3  1  0  0  0  0
  3  4  2  0  0  0  0
  4  5  1  0  0  0  0
  5  6  2  0  0  0  0
  1  6  1  0  0  0  0
  4  7  1  0  0  0  0
  7  8  1  0  0  0  0
  7  9  1  0  0  0  0
  6 10  1  0  0  0  0
 10 11  1  0  0  0  0
 11 12  2  0  0  0  0
 11 13  1  0  0  0  0
 14 13  2  0  0  0  0
 13 15  1  0  0  0  0
 15 16  2  0  0  0  0
 16 17  1  0  0  0  0
 17 18  2  0  0  0  0
 14 18  1  0  0  0  0
 17 19  1  0  0  0  0
 19 20  1  0  0  0  0
 19 21  1  0  0  0  0
 19 22  1  0  0  0  0
M  END
> <From>
www.bindingDB.org

> <BindingDB Reactant_set_id>
74815

> <Ligand InChI>
InChI=1S/C14H11BF3NO3/c16-14(17,18)10-6-4-9(5-7-10)13(20)19-12-3-1-2-11(8-12)15(21)22/h1-8,21-22H,(H,19,20)

> <Ligand InChI Key>
BFCPMCGIDQMEMM-UHFFFAOYSA-N

> <BindingDB MonomerID>
39828

> <BindingDB Ligand Name>
Amide and sulfonamide derivatives, 13

> <Target Name>
Beta-lactamase

> <Target Source Organism According to Curator or DataSource>
Escherichia coli

> <Ki (nM)>
 2.5e+3

> <IC50 (nM)>


> <Kd (nM)>


> <EC50 (nM)>


> <kon (M-1-s-1)>


> <koff (s-1)>


> <pH>
7

> <Temp C>


> <Curation/DataSource>
Curated from the literature by BindingDB

> <Article DOI>
10.1016/S1074-5521(01)00034-5

> <BindingDB Entry DOI>
10.7270/Q27M06BZ

> <PMID>
11410378

> <PubChem AID>
aid1799472

> <Patent Number>


> <Authors>
Tondi, D; Powers, RA; Caselli, E; Negri, MC; Bl&aacute;zquez, J; Costi, MP; Shoichet, BK

> <Institution>
Northwestern University

> <Link to Ligand in BindingDB>
http://www.bindingdb.org/bind/chemsearch/marvin/MolStructure.jsp?monomerid=39828

> <Link to Ligand-Target Pair in BindingDB>
http://www.bindingdb.org/jsp/dbsearch/PrimarySearch_ki.jsp?energyterm=kJ/mole&tag=pol&polymerid=4401&target=Beta-lactamase&column=ki&startPg=0&Increment=50&submit=Search

> <Link to Ligand-Target Pair in BindingDB>
http://www.bindingdb.org/jsp/dbsearch/PrimarySearch_ki.jsp?energyterm=kJ/mole&tag=r21&monomerid=39828&enzyme=Beta-lactamase&column=ki&startPg=0&Increment=50&submit=Search

> <Ligand HET ID in PDB>


> <PDB ID(s) for Ligand-Target Complex>


> <PubChem CID of Ligand>
9796653

> <PubChem SID of Ligand>
123080136

> <ChEBI ID of Ligand>


> <ChEMBL ID of Ligand>


> <DrugBank ID of Ligand>


> <IUPHAR_GRAC ID of Ligand>


> <KEGG ID of Ligand>


> <ZINC ID of Ligand>


> <Number of Protein Chains in Target (bigger than 1 implies a multichain complex)>
1

> <BindingDB Target Chain Sequence>
MFKTTLCALLITASCSTFAAPQQINDIVHRTITPLIEQQKIPGMAVAVIYQGKPYYFTWGYADIAKKQPVTQQTLFELGSVSKTFTGVLGGDAIARGEIKLSDPTTKYWPELTAKQWNGITLLHLATYTAGGLPLQVPDEVKSSSDLLRFYQNWQPAWAPGTQRLYANSSIGLFGALAVKPSGLSFEQAMQTRVFQPLKLNHTWINVPPAEEKNYAWGYREGKAVHVSPGALDAEAYGVKSTIEDMARWVQSNLKPLDINEKTLQQGIQLAQSRYWQTGDMYQGLGWEMLDWPVNPDSIINGSDNKIALAARPVKAITPPTPAVRASWVHKTGATGGFGSYVAFIPEKELGIVMLANKNYPNPARVDAAWQILNALQ

> <PDB ID(s) of Target Chain>
1C3B,1FCO,1FSW,1FSY,1GA9,1IEL,1IEM,1KDS,1KDW,1KE0,1KE3,1KE4,1KVM,1L2S,1LL5,1LL9,1LLB,1MXO,1MY8,1XGI,1XGJ,2BLS,2HDQ,2HDR,2HDS,2HDU,2I72,2P9V,2PU2,2PU4,2R9W,2R9X,2RCX,3BLS,3BM6,3GQZ,3GR2,3GRJ,3GSG,3GTC,3GV9,3GVB,3O86,3O87,3O88,4E3I,4E3J,4E3K,4E3L,4E3M,4E3N,4E3O,4JXG,4JXS,4JXV,4JXW,4KG2,4KZ3,4KZ4,4KZ5,4KZ6,4KZ7,4KZ8,4KZ9,4KZA,4KZB,4LV0,4LV1,4LV2,4LV3,4OKP,4OLD,4OLG,6DPT,6DPX,6DPY,6DPZ,6T35,6T3D,6T5Y,6T7L,6TBW,6TPM,6WGQ,6YEN,6YEO,6YPD

> <UniProt (SwissProt) Recommended Name of Target Chain>
Beta-lactamase

> <UniProt (SwissProt) Entry Name of Target Chain>
AMPC_ECOLI

> <UniProt (SwissProt) Primary ID of Target Chain>
P00811

> <UniProt (SwissProt) Secondary ID(s) of Target Chain>
Q2M6F2

> <UniProt (SwissProt) Alternative ID(s) of Target Chain>


> <UniProt (TrEMBL) Submitted Name of Target Chain>


> <UniProt (TrEMBL) Entry Name of Target Chain>


> <UniProt (TrEMBL) Primary ID of Target Chain>


> <UniProt (TrEMBL) Secondary ID(s) of Target Chain>


> <UniProt (TrEMBL) Alternative ID(s) of Target Chain>


$$$$

  Mrv0541 11231414242D          

 30 32  0  0  0  0            999 V2000
   -4.9432  -12.4808    0.0000 C   0  0  0  0  0  0  0  0  0  0  0  0
   -4.2313  -12.0703    0.0000 C   0  0  0  0  0  0  0  0  0  0  0  0
   -4.2319  -11.2432    0.0000 O   0  0  0  0  0  0  0  0  0  0  0  0
   -3.5146  -12.4767    0.0000 O   0  0  0  0  0  0  0  0  0  0  0  0
   -2.8025  -12.0620    0.0000 C   0  0  0  0  0  0  0  0  0  0  0  0
   -2.0837  -12.4747    0.0000 C   0  0  0  0  0  0  0  0  0  0  0  0
   -1.3717  -12.0579    0.0000 C   0  0  0  0  0  0  0  0  0  0  0  0
   -0.6550  -12.4705    0.0000 N   0  0  0  0  0  0  0  0  0  0  0  0
   -0.6543  -13.2976    0.0000 C   0  0  1  0  0  0  0  0  0  0  0  0
    0.1707  -13.2928    0.0000 C   0  0  1  0  0  0  0  0  0  0  0  0
    0.1680  -12.4657    0.0000 C   0  0  0  0  0  0  0  0  0  0  0  0
    0.7464  -11.8848    0.0000 O   0  0  0  0  0  0  0  0  0  0  0  0
    0.7579  -13.8712    0.0000 N   0  0  0  0  0  0  0  0  0  0  0  0
    1.5509  -13.6604    0.0000 C   0  0  0  0  0  0  0  0  0  0  0  0
    1.7629  -12.8649    0.0000 O   0  0  0  0  0  0  0  0  0  0  0  0
    2.1360  -14.2388    0.0000 C   0  0  0  0  0  0  0  0  0  0  0  0
    2.9290  -14.0280    0.0000 N   0  0  0  0  0  0  0  0  0  0  0  0
    3.5141  -14.6062    0.0000 O   0  0  0  0  0  0  0  0  0  0  0  0
    4.3113  -14.3913    0.0000 C   0  0  0  0  0  0  0  0  0  0  0  0
    1.9241  -15.0384    0.0000 C   0  0  0  0  0  0  0  0  0  0  0  0
    1.1508  -15.3386    0.0000 C   0  0  0  0  0  0  0  0  0  0  0  0
    1.2020  -16.1628    0.0000 S   0  0  0  0  0  0  0  0  0  0  0  0
    1.9974  -16.3708    0.0000 C   0  0  0  0  0  0  0  0  0  0  0  0
    2.4463  -15.6781    0.0000 N   0  0  0  0  0  0  0  0  0  0  0  0
    2.2914  -17.1419    0.0000 N   0  0  0  0  0  0  0  0  0  0  0  0
   -1.3684  -13.7080    0.0000 S   0  0  0  0  0  0  0  0  0  0  0  0
   -2.0852  -13.2954    0.0000 C   0  0  0  0  0  0  0  0  0  0  0  0
   -1.3765  -11.2370    0.0000 C   0  0  0  0  0  0  0  0  0  0  0  0
   -2.0891  -10.8245    0.0000 O   0  0  0  0  0  0  0  0  0  0  0  0
   -0.6581  -10.8225    0.0000 O   0  0  0  0  0  0  0  0  0  0  0  0
  2  3  2  0  0  0  0
  2  4  1  0  0  0  0
  4  5  1  0  0  0  0
  5  6  1  0  0  0  0
  6  7  2  0  0  0  0
  7  8  1  0  0  0  0
  9  8  1  1  0  0  0
  9 10  1  0  0  0  0
 10 11  1  0  0  0  0
  8 11  1  0  0  0  0
 11 12  2  0  0  0  0
 10 13  1  1  0  0  0
 13 14  1  0  0  0  0
 14 15  2  0  0  0  0
 14 16  1  0  0  0  0
 16 17  2  0  0  0  0
 17 18  1  0  0  0  0
 18 19  1  0  0  0  0
 16 20  1  0  0  0  0
 20 21  2  0  0  0  0
 21 22  1  0  0  0  0
 22 23  1  0  0  0  0
 23 24  2  0  0  0  0
 20 24  1  0  0  0  0
 23 25  1  0  0  0  0
  9 26  1  0  0  0  0
 26 27  1  0  0  0  0
  6 27  1  0  0  0  0
  7 28  1  0  0  0  0
 28 29  2  0  0  0  0
 28 30  1  0  0  0  0
  1  2  1  0  0  0  0
M  END
> <From>
www.bindingDB.org

> <BindingDB Reactant_set_id>
50619889

> <Ligand InChI>
InChI=1S/C16H17N5O7S2/c1-6(22)28-3-7-4-29-14-10(13(24)21(14)11(7)15(25)26)19-12(23)9(20-27-2)8-5-30-16(17)18-8/h5,10,14H,3-4H2,1-2H3,(H2,17,18)(H,19,23)(H,25,26)/b20-9+/t10-,14-/m1/s1

> <Ligand InChI Key>
GPRBEKHLDVQUJE-VINNURBNSA-N

> <BindingDB MonomerID>
50335523

> <BindingDB Ligand Name>
(6R,7R)-3-(acetoxymethyl)-7-(2-(2-aminothiazol-4-yl)-2-(methoxyimino)acetamido)-8-oxo-5-thia-1-aza-bicyclo[4.2.0]oct-2-ene-2-carboxylic acid::(6R,7R)-3-Acetoxymethyl-7-[2-(2-amino-thiazol-4-yl)-2-hydroxyimino-acetylamino]-8-oxo-5-thia-1-aza-bicyclo[4.2.0]oct-2-ene-2-carboxylic acid::(6R,7R)-3-Acetoxymethyl-7-{2-(2-amino-thiazol-4-yl)-2-[(E)-methoxyimino]-acetylamino}-8-oxo-5-thia-1-aza-bicyclo[4.2.0]oct-2-ene-2-carboxylic acid::(6R,7R)-3-Acetoxymethyl-7-{2-(2-amino-thiazol-4-yl)-2-[(Z)-methoxyimino]-acetylamino}-8-oxo-5-thia-1-aza-bicyclo[4.2.0]oct-2-ene-2-carboxylic acid::(6R,7R,E)-3-(acetoxymethyl)-7-(2-(2-aminothiazol-4-yl)-2-(methoxyimino)acetamido)-8-oxo-5-thia-1-aza-bicyclo[4.2.0]oct-2-ene-2-carboxylic acid::(6R,7R,Z)-3-(acetoxymethyl)-7-(2-(2-aminothiazol-4-yl)-2-(methoxyimino)acetamido)-8-oxo-5-thia-1-aza-bicyclo[4.2.0]oct-2-ene-2-carboxylic acid::(6R,7R,Z)-3-(acetoxymethyl)-7-(2-(5-aminothiophen-3-yl)-2-(methoxyimino)acetamido)-8-oxo-5-thia-1-aza-bicyclo[4.2.0]oct-2-ene-2-carboxylic acid::(6R,7S,Z)-3-(acetoxymethyl)-7-(2-(2-aminothiazol-4-yl)-2-(methoxyimino)acetamido)-8-oxo-5-thia-1-aza-bicyclo[4.2.0]oct-2-ene-2-carboxylic acid::(6S,7S,E)-3-(acetoxymethyl)-7-(2-(2-aminothiazol-4-yl)-2-(methoxyimino)acetamido)-8-oxo-5-thia-1-aza-bicyclo[4.2.0]oct-2-ene-2-carboxylic acid::(Cefotaxime)3-Acetoxymethyl-7-[2-(2-amino-thiazol-4-yl)-2-methoxyimino-acetylamino]-8-oxo-5-thia-1-aza-bicyclo[4.2.0]oct-2-ene-2-carboxylic acid::(R)-3-Acetoxymethyl-7-{2-(2-amino-thiazol-4-yl)-2-[(E)-methoxyimino]-acetylamino}-8-oxo-5-thia-1-aza-bicyclo[4.2.0]oct-2-ene-2-carboxylic acid::3-Acetoxymethyl-7-[2-(2-amino-thiazol-4-yl)-2-methoxyimino-acetylamino]-5,8-dioxo-5lambda*4*-thia-1-aza-bicyclo[4.2.0]oct-2-ene-2-carboxylic acid::3-Acetoxymethyl-7-[2-(2-amino-thiazol-4-yl)-2-methoxyimino-acetylamino]-8-oxo-5-thia-1-aza-bicyclo[4.2.0]oct-2-ene-2-carboxylic acid::3-Acetoxymethyl-7-[2-(2-amino-thiazol-4-yl)-2-methoxyimino-acetylamino]-8-oxo-5-thia-1-aza-bicyclo[4.2.0]oct-2-ene-2-carboxylic acid (Cefotaxime)::3-Acetoxymethyl-7-[2-(2-amino-thiazol-4-yl)-2-methoxyimino-acetylamino]-8-oxo-5-thia-1-aza-bicyclo[4.2.0]oct-2-ene-2-carboxylic acid anion::3-Acetoxymethyl-7-[2-(2-amino-thiazol-4-yl)-2-methoxyimino-acetylamino]-8-oxo-5-thia-1-aza-bicyclo[4.2.0]oct-2-ene-2-carboxylic acid(Cefotaxime)::3-Acetoxymethyl-7-{2-(2-amino-thiazol-4-yl)-2-[(Z)-methoxyimino]-acetylamino}-8-oxo-5-thia-1-aza-bicyclo[4.2.0]oct-2-ene-2-carboxylic acid anion::CHEMBL102::Cefotax::Claforan::Kefotex::cefotaxim::cefotaxime

> <Target Name>
Beta-lactamase

> <Target Source Organism According to Curator or DataSource>
Acinetobacter baumannii

> <Ki (nM)>
 2500

> <IC50 (nM)>


> <Kd (nM)>


> <EC50 (nM)>


> <kon (M-1-s-1)>


> <koff (s-1)>


> <pH>


> <Temp C>


> <Curation/DataSource>
ChEMBL

> <Article DOI>
10.1128/AAC.00050-10

> <BindingDB Entry DOI>
10.7270/Q2348KM2

> <PMID>
20547808

> <PubChem AID>


> <Patent Number>


> <Authors>
Rodriguez-Martinez, JM; Nordmann, P; Ronco, E; Poirel, L

> <Institution>
Paris-Sud University

> <Link to Ligand in BindingDB>
http://www.bindingdb.org/bind/chemsearch/marvin/MolStructure.jsp?monomerid=50335523

> <Link to Ligand-Target Pair in BindingDB>
http://www.bindingdb.org/jsp/dbsearch/PrimarySearch_ki.jsp?energyterm=kJ/mole&tag=pol&polymerid=50004684&target=Beta-lactamase&column=ki&startPg=0&Increment=50&submit=Search

> <Link to Ligand-Target Pair in BindingDB>
http://www.bindingdb.org/jsp/dbsearch/PrimarySearch_ki.jsp?energyterm=kJ/mole&tag=r21&monomerid=50335523&enzyme=Beta-lactamase&column=ki&startPg=0&Increment=50&submit=Search

> <Ligand HET ID in PDB>


> <PDB ID(s) for Ligand-Target Complex>


> <PubChem CID of Ligand>
5479527

> <PubChem SID of Ligand>
125085625

> <ChEBI ID of Ligand>


> <ChEMBL ID of Ligand>
CHEMBL102

> <DrugBank ID of Ligand>


> <IUPHAR_GRAC ID of Ligand>


> <KEGG ID of Ligand>
C00875

> <ZINC ID of Ligand>
ZINC03830437

> <Number of Protein Chains in Target (bigger than 1 implies a multichain complex)>
1

> <BindingDB Target Chain Sequence>
MRFKKISCLLLSPLFIFSTSIYAGNTPKDQEIKKLVDQNFKPLLEKYDVPGMAVGVIQNNKKYEMYYGLQSVQDKKAVNRSTIFELGSVSKLFTATAGGYAKNKGKISFDDTPGKYWKELKNTPIDQVNLLQLATYTSGNLALQFPDEVQTDQQVLTFFKDWQPKNPIGEYRQYSNPSIGLFGKVVALSMNKPFDQVLEKTIFPALGLKHSYVNVPKTQMQNYAFGYNQENQPIRVNPGPLDAPAYGVKSTLPDMLSFIHANLNPQKYPADIQRAINETHQGFYQVNTMYQALGWEEFSYPATLQTLLDSNSEQIVMKPNKVTAISKEPSVKMYHKTGSTNGFGTYVVFIPKENIGLVMLTNKRIPNEERIKAAYAVLDAIKK

> <PDB ID(s) of Target Chain>
4QD4,8CUP,8CUQ,8FQN,8FQO,8FQV,8FQW

> <UniProt (SwissProt) Recommended Name of Target Chain>


> <UniProt (SwissProt) Entry Name of Target Chain>


> <UniProt (SwissProt) Primary ID of Target Chain>


> <UniProt (SwissProt) Secondary ID(s) of Target Chain>


> <UniProt (SwissProt) Alternative ID(s) of Target Chain>


> <UniProt (TrEMBL) Submitted Name of Target Chain>
Beta-lactamase

> <UniProt (TrEMBL) Entry Name of Target Chain>
D6NSM8_ACIBA

> <UniProt (TrEMBL) Primary ID of Target Chain>
D6NSM8

> <UniProt (TrEMBL) Secondary ID(s) of Target Chain>


> <UniProt (TrEMBL) Alternative ID(s) of Target Chain>


$$$$

  Mrv0541 11231401522D          

  8  8  0  0  0  0            999 V2000
    1.0910   -0.3405    0.0000 C   0  0  0  0  0  0  0  0  0  0  0  0
    0.2612   -0.3306    0.0000 B   0  0  0  0  0  0  0  0  0  0  0  0
    1.5770    0.3240    0.0000 S   0  0  0  0  0  0  0  0  0  0  0  0
    1.5671   -1.0116    0.0000 C   0  0  0  0  0  0  0  0  0  0  0  0
    2.3605    0.0661    0.0000 C   0  0  0  0  0  0  0  0  0  0  0  0
    2.3539   -0.7637    0.0000 C   0  0  0  0  0  0  0  0  0  0  0  0
   -0.1554   -1.0513    0.0000 O   0  0  0  0  0  0  0  0  0  0  0  0
   -0.1454    0.3835    0.0000 O   0  0  0  0  0  0  0  0  0  0  0  0
  2  1  1  0  0  0  0
  3  1  1  0  0  0  0
  4  1  2  0  0  0  0
  5  3  1  0  0  0  0
  6  4  1  0  0  0  0
  7  2  1  0  0  0  0
  8  2  1  0  0  0  0
  5  6  2  0  0  0  0
M  END
> <From>
www.bindingDB.org

> <BindingDB Reactant_set_id>
50117275

> <Ligand InChI>
InChI=1S/C4H5BO2S/c6-5(7)4-2-1-3-8-4/h1-3,6-7H

> <Ligand InChI Key>
ARYHTUPFQTUBBG-UHFFFAOYSA-N

> <BindingDB MonomerID>
50067899

> <BindingDB Ligand Name>
2-Thiopheneboronicacid::CHEMBL141272::Thiophene-2-boronic acid::thiophen-2-ylboronic acid::thiophene2-boronic acid

> <Target Name>
Beta-lactamase

> <Target Source Organism According to Curator or DataSource>
Escherichia coli

> <Ki (nM)>
 2500

> <IC50 (nM)>


> <Kd (nM)>


> <EC50 (nM)>


> <kon (M-1-s-1)>


> <koff (s-1)>


> <pH>


> <Temp C>


> <Curation/DataSource>
ChEMBL

> <Article DOI>
10.1021/jm980343w

> <BindingDB Entry DOI>
10.7270/Q22N51FX

> <PMID>
9804697

> <PubChem AID>


> <Patent Number>


> <Authors>
Weston, GS; Blazquez, J; Baquero, F; Shoichet, BK

> <Institution>
Northwestern University Medical School

> <Link to Ligand in BindingDB>
http://www.bindingdb.org/bind/chemsearch/marvin/MolStructure.jsp?monomerid=50067899

> <Link to Ligand-Target Pair in BindingDB>
http://www.bindingdb.org/jsp/dbsearch/PrimarySearch_ki.jsp?energyterm=kJ/mole&tag=pol&polymerid=4401&target=Beta-lactamase&column=ki&startPg=0&Increment=50&submit=Search

> <Link to Ligand-Target Pair in BindingDB>
http://www.bindingdb.org/jsp/dbsearch/PrimarySearch_ki.jsp?energyterm=kJ/mole&tag=r21&monomerid=50067899&enzyme=Beta-lactamase&column=ki&startPg=0&Increment=50&submit=Search

> <Ligand HET ID in PDB>


> <PDB ID(s) for Ligand-Target Complex>


> <PubChem CID of Ligand>
2733960

> <PubChem SID of Ligand>
103962325

> <ChEBI ID of Ligand>


> <ChEMBL ID of Ligand>
CHEMBL141272

> <DrugBank ID of Ligand>


> <IUPHAR_GRAC ID of Ligand>


> <KEGG ID of Ligand>


> <ZINC ID of Ligand>


> <Number of Protein Chains in Target (bigger than 1 implies a multichain complex)>
1

> <BindingDB Target Chain Sequence>
MFKTTLCALLITASCSTFAAPQQINDIVHRTITPLIEQQKIPGMAVAVIYQGKPYYFTWGYADIAKKQPVTQQTLFELGSVSKTFTGVLGGDAIARGEIKLSDPTTKYWPELTAKQWNGITLLHLATYTAGGLPLQVPDEVKSSSDLLRFYQNWQPAWAPGTQRLYANSSIGLFGALAVKPSGLSFEQAMQTRVFQPLKLNHTWINVPPAEEKNYAWGYREGKAVHVSPGALDAEAYGVKSTIEDMARWVQSNLKPLDINEKTLQQGIQLAQSRYWQTGDMYQGLGWEMLDWPVNPDSIINGSDNKIALAARPVKAITPPTPAVRASWVHKTGATGGFGSYVAFIPEKELGIVMLANKNYPNPARVDAAWQILNALQ

> <PDB ID(s) of Target Chain>
1C3B,1FCO,1FSW,1FSY,1GA9,1IEL,1IEM,1KDS,1KDW,1KE0,1KE3,1KE4,1KVM,1L2S,1LL5,1LL9,1LLB,1MXO,1MY8,1XGI,1XGJ,2BLS,2HDQ,2HDR,2HDS,2HDU,2I72,2P9V,2PU2,2PU4,2R9W,2R9X,2RCX,3BLS,3BM6,3GQZ,3GR2,3GRJ,3GSG,3GTC,3GV9,3GVB,3O86,3O87,3O88,4E3I,4E3J,4E3K,4E3L,4E3M,4E3N,4E3O,4JXG,4JXS,4JXV,4JXW,4KG2,4KZ3,4KZ4,4KZ5,4KZ6,4KZ7,4KZ8,4KZ9,4KZA,4KZB,4LV0,4LV1,4LV2,4LV3,4OKP,4OLD,4OLG,6DPT,6DPX,6DPY,6DPZ,6T35,6T3D,6T5Y,6T7L,6TBW,6TPM,6WGQ,6YEN,6YEO,6YPD

> <UniProt (SwissProt) Recommended Name of Target Chain>
Beta-lactamase

> <UniProt (SwissProt) Entry Name of Target Chain>
AMPC_ECOLI

> <UniProt (SwissProt) Primary ID of Target Chain>
P00811

> <UniProt (SwissProt) Secondary ID(s) of Target Chain>
Q2M6F2

> <UniProt (SwissProt) Alternative ID(s) of Target Chain>


> <UniProt (TrEMBL) Submitted Name of Target Chain>


> <UniProt (TrEMBL) Entry Name of Target Chain>


> <UniProt (TrEMBL) Primary ID of Target Chain>


> <UniProt (TrEMBL) Secondary ID(s) of Target Chain>


> <UniProt (TrEMBL) Alternative ID(s) of Target Chain>


$$$$

  Mrv0541 11221409162D          

  8  8  0  0  0  0            999 V2000
    7.5450  -10.1711    0.0000 C   0  0  0  0  0  0  0  0  0  0  0  0
    7.5453  -10.9961    0.0000 C   0  0  0  0  0  0  0  0  0  0  0  0
    8.3299  -11.2508    0.0000 S   0  0  0  0  0  0  0  0  0  0  0  0
    8.8147  -10.5832    0.0000 C   0  0  0  0  0  0  0  0  0  0  0  0
    8.3295   -9.9160    0.0000 C   0  0  0  0  0  0  0  0  0  0  0  0
    9.6337  -10.5829    0.0000 B   0  0  0  0  0  0  0  0  0  0  0  0
   10.0433  -11.2920    0.0000 O   0  0  0  0  0  0  0  0  0  0  0  0
   10.0428   -9.8736    0.0000 O   0  0  0  0  0  0  0  0  0  0  0  0
  3  4  1  0  0  0  0
  4  5  2  0  0  0  0
  5  1  1  0  0  0  0
  1  2  1  0  0  0  0
  4  6  1  0  0  0  0
  6  7  1  0  0  0  0
  2  3  1  0  0  0  0
  6  8  1  0  0  0  0
M  END
> <From>
www.bindingDB.org

> <BindingDB Reactant_set_id>
50404433

> <Ligand InChI>
InChI=1S/C4H7BO2S/c6-5(7)4-2-1-3-8-4/h2,6-7H,1,3H2

> <Ligand InChI Key>
HBWATGYSAHIWIX-UHFFFAOYSA-N

> <BindingDB MonomerID>
50225388

> <BindingDB Ligand Name>
CHEMBL236759::thiophene-2-ylboronic acid

> <Target Name>
Beta-lactamase TEM

> <Target Source Organism According to Curator or DataSource>


> <Ki (nM)>
 2500

> <IC50 (nM)>


> <Kd (nM)>


> <EC50 (nM)>


> <kon (M-1-s-1)>


> <koff (s-1)>


> <pH>


> <Temp C>


> <Curation/DataSource>
ChEMBL

> <Article DOI>
10.1021/jm070643q

> <BindingDB Entry DOI>
10.7270/Q21N80W5

> <PMID>
17956081

> <PubChem AID>


> <Patent Number>


> <Authors>
Venturelli, A; Tondi, D; Cancian, L; Morandi, F; Cannazza, G; Segatore, B; Prati, F; Amicosante, G; Shoichet, BK; Costi, MP

> <Institution>
Universit&#224; degli Studi di Modena e Reggio Emilia

> <Link to Ligand in BindingDB>
http://www.bindingdb.org/bind/chemsearch/marvin/MolStructure.jsp?monomerid=50225388

> <Link to Ligand-Target Pair in BindingDB>
http://www.bindingdb.org/jsp/dbsearch/PrimarySearch_ki.jsp?energyterm=kJ/mole&tag=pol&polymerid=7704&target=Beta-lactamase+TEM&column=ki&startPg=0&Increment=50&submit=Search

> <Link to Ligand-Target Pair in BindingDB>
http://www.bindingdb.org/jsp/dbsearch/PrimarySearch_ki.jsp?energyterm=kJ/mole&tag=r21&monomerid=50225388&enzyme=Beta-lactamase+TEM&column=ki&startPg=0&Increment=50&submit=Search

> <Ligand HET ID in PDB>


> <PDB ID(s) for Ligand-Target Complex>


> <PubChem CID of Ligand>
44435718

> <PubChem SID of Ligand>
104096694

> <ChEBI ID of Ligand>


> <ChEMBL ID of Ligand>
CHEMBL236759

> <DrugBank ID of Ligand>


> <IUPHAR_GRAC ID of Ligand>


> <KEGG ID of Ligand>


> <ZINC ID of Ligand>


> <Number of Protein Chains in Target (bigger than 1 implies a multichain complex)>
1

> <BindingDB Target Chain Sequence>
MSIQHFRVALIPFFAAFCLPVFAHPETLVKVKDAEDQLGARVGYIELDLNSGKILESFRPEERFPMMSTFKVLLCGAVLSRVDAGQEQLGRRIHYSQNDLVEYSPVTEKHLTDGMTVRELCSAAITMSDNTAANLLLTTIGGPKELTAFLHNMGDHVTRLDRWEPELNEAIPNDERDTTMPAAMATTLRKLLTGELLTLASRQQLIDWMEADKVAGPLLRSALPAGWFIADKSGAGERGSRGIIAALGPDGKPSRIVVIYTTGSQATMDERNRQIAEIGASLIKHW

> <PDB ID(s) of Target Chain>
1ERM,1ERO,1ERQ,1ESU,1FQG,1JTD,1JVJ,1JWP,1JWV,1LHY,1LI9,1M40,1NXY,1NY0,1NYM,1NYY,1PZO,1PZP,1S0W,1XPB,1YT4,2V1Z,2V20,3CMZ,3DTM,3JYI,3P98,4DXB,4DXC,4GKU,4ZJ2,5AQ8,5HVI,5HW1,5HW5,5NPO,6B2N,7QLP,7QNK,7U6Q,8DE0

> <UniProt (SwissProt) Recommended Name of Target Chain>
Beta-lactamase TEM

> <UniProt (SwissProt) Entry Name of Target Chain>
BLAT_ECOLX

> <UniProt (SwissProt) Primary ID of Target Chain>
P62593

> <UniProt (SwissProt) Secondary ID(s) of Target Chain>
P00810 Q47313

> <UniProt (SwissProt) Alternative ID(s) of Target Chain>


> <UniProt (TrEMBL) Submitted Name of Target Chain>


> <UniProt (TrEMBL) Entry Name of Target Chain>


> <UniProt (TrEMBL) Primary ID of Target Chain>


> <UniProt (TrEMBL) Secondary ID(s) of Target Chain>


> <UniProt (TrEMBL) Alternative ID(s) of Target Chain>


$$$$

  Mrv0541 11171616312D          

 28 30  0  0  0  0            999 V2000
    1.5039   -1.6398    0.0000 N   0  0  0  0  0  0  0  0  0  0  0  0
    2.3105   -1.8126    0.0000 N   0  0  0  0  0  0  0  0  0  0  0  0
    2.7242   -1.0988    0.0000 C   0  0  0  0  0  0  0  0  0  0  0  0
    2.1731   -0.4848    0.0000 N   0  0  0  0  0  0  0  0  0  0  0  0
    1.4293   -0.8252    0.0000 C   0  0  0  0  0  0  0  0  0  0  0  0
    3.5436   -1.0122    0.0000 S   0  0  0  0  0  0  0  0  0  0  0  0
    3.8795   -0.2582    0.0000 C   0  0  0  0  0  0  0  0  0  0  0  0
    4.7004   -0.1715    0.0000 C   0  0  0  0  0  0  0  0  0  0  0  0
    5.0362    0.5826    0.0000 N   0  0  0  0  0  0  0  0  0  0  0  0
    5.0884   -0.7054    0.0000 O   0  0  0  0  0  0  0  0  0  0  0  0
    5.8571    0.6692    0.0000 C   0  0  0  0  0  0  0  0  0  0  0  0
    0.7144   -0.4125    0.0000 C   0  0  0  0  0  0  0  0  0  0  0  0
    0.7144    0.4125    0.0000 C   0  0  0  0  0  0  0  0  0  0  0  0
    0.0000    0.8250    0.0000 C   0  0  0  0  0  0  0  0  0  0  0  0
   -0.7144    0.4125    0.0000 C   0  0  0  0  0  0  0  0  0  0  0  0
   -0.7144   -0.4125    0.0000 C   0  0  0  0  0  0  0  0  0  0  0  0
    0.0000   -0.8250    0.0000 C   0  0  0  0  0  0  0  0  0  0  0  0
    1.4285    0.8267    0.0000 C   0  0  0  0  0  0  0  0  0  0  0  0
    2.0006    0.4977    0.0000 O   0  0  0  0  0  0  0  0  0  0  0  0
    1.4275    1.4867    0.0000 O   0  0  0  0  0  0  0  0  0  0  0  0
    6.1939    1.4224    0.0000 C   0  0  0  0  0  0  0  0  0  0  0  0
    7.0145    1.5073    0.0000 C   0  0  0  0  0  0  0  0  0  0  0  0
    7.4984    0.8392    0.0000 C   0  0  0  0  0  0  0  0  0  0  0  0
    7.1617    0.0860    0.0000 C   0  0  0  0  0  0  0  0  0  0  0  0
    6.3411    0.0010    0.0000 C   0  0  0  0  0  0  0  0  0  0  0  0
    5.7111    2.0919    0.0000 N   0  3  0  0  0  0  0  0  0  0  0  0
    5.9814    2.6941    0.0000 O   0  0  0  0  0  0  0  0  0  0  0  0
    5.0546    2.0252    0.0000 O   0  5  0  0  0  0  0  0  0  0  0  0
  1  2  4  0  0  0  0
  2  3  4  0  0  0  0
  3  4  4  0  0  0  0
  4  5  4  0  0  0  0
  5  1  4  0  0  0  0
  3  6  1  0  0  0  0
  6  7  1  0  0  0  0
  7  8  1  0  0  0  0
  8  9  1  0  0  0  0
  8 10  2  0  0  0  0
  9 11  1  0  0  0  0
 12 13  4  0  0  0  0
 13 14  4  0  0  0  0
 14 15  4  0  0  0  0
 15 16  4  0  0  0  0
 16 17  4  0  0  0  0
 17 12  4  0  0  0  0
  5 12  1  0  0  0  0
 18 19  1  0  0  0  0
 18 20  2  0  0  0  0
 13 18  1  0  0  0  0
 11 21  4  0  0  0  0
 21 22  4  0  0  0  0
 22 23  4  0  0  0  0
 23 24  4  0  0  0  0
 24 25  4  0  0  0  0
 25 11  4  0  0  0  0
 26 27  2  0  0  0  0
 26 28  1  0  0  0  0
 21 26  1  0  0  0  0
M  CHG  2  26   1  28  -1
M  STY  1   1 DAT
M  SAL   1  1   4
M  SDT   1 MRV_IMPLICIT_H                                        
M  SDD   1     0.0000    0.0000    DR    ALL  0       0  
M  SED   1 IMPL_H1
M  END
> <From>
www.bindingDB.org

> <BindingDB Reactant_set_id>
50342710

> <Ligand InChI>
InChI=1S/C17H13N5O5S/c23-14(18-12-7-3-4-8-13(12)22(26)27)9-28-17-19-15(20-21-17)10-5-1-2-6-11(10)16(24)25/h1-8H,9H2,(H,18,23)(H,24,25)(H,19,20,21)

> <Ligand InChI Key>
GJLAVWSUHSBJDS-UHFFFAOYSA-N

> <BindingDB MonomerID>
50089387

> <BindingDB Ligand Name>
CHEMBL3577969

> <Target Name>
Beta-lactamase

> <Target Source Organism According to Curator or DataSource>


> <Ki (nM)>
 2700

> <IC50 (nM)>


> <Kd (nM)>


> <EC50 (nM)>


> <kon (M-1-s-1)>


> <koff (s-1)>


> <pH>


> <Temp C>


> <Curation/DataSource>
ChEMBL

> <Article DOI>
10.1021/ml500534c

> <BindingDB Entry DOI>
10.7270/Q2XP76P0

> <PMID>
25893049

> <PubChem AID>


> <Patent Number>


> <Authors>
Yang, SK; Kang, JS; Oelschlaeger, P; Yang, KW

> <Institution>
North-West University

> <Link to Ligand in BindingDB>
http://www.bindingdb.org/bind/chemsearch/marvin/MolStructure.jsp?monomerid=50089387

> <Link to Ligand-Target Pair in BindingDB>
http://www.bindingdb.org/jsp/dbsearch/PrimarySearch_ki.jsp?energyterm=kJ/mole&tag=pol&polymerid=50006888&target=Beta-lactamase&column=ki&startPg=0&Increment=50&submit=Search

> <Link to Ligand-Target Pair in BindingDB>
http://www.bindingdb.org/jsp/dbsearch/PrimarySearch_ki.jsp?energyterm=kJ/mole&tag=r21&monomerid=50089387&enzyme=Beta-lactamase&column=ki&startPg=0&Increment=50&submit=Search

> <Ligand HET ID in PDB>


> <PDB ID(s) for Ligand-Target Complex>


> <PubChem CID of Ligand>
122178139

> <PubChem SID of Ligand>
318472583

> <ChEBI ID of Ligand>


> <ChEMBL ID of Ligand>
CHEMBL3577969

> <DrugBank ID of Ligand>


> <IUPHAR_GRAC ID of Ligand>


> <KEGG ID of Ligand>


> <ZINC ID of Ligand>


> <Number of Protein Chains in Target (bigger than 1 implies a multichain complex)>
1

> <BindingDB Target Chain Sequence>
MMKGWIKCGLAGAVVLMASFWGGSVRAAGMSLTQQVSGPVYVVEDNYYVQENSMVYFGAKGVTVVGATWTPDTARELHKLIKRVSRKPVLEVINTNYHTDRAGGNAYWKSIGAKVISTRQTRDLMKSDWAEIVAFTRKGLPEYPDLPLVLPNVVHEGDFTLQEGKLRAFYLGPAHSPDGIFVYFPDQQVLYGNCILKEKLGNLSFADVKAYPQTLERLKAMKLPIKTVVGGHDSPLHGPELIDHYEALIKAASQS

> <PDB ID(s) of Target Chain>


> <UniProt (SwissProt) Recommended Name of Target Chain>


> <UniProt (SwissProt) Entry Name of Target Chain>


> <UniProt (SwissProt) Primary ID of Target Chain>


> <UniProt (SwissProt) Secondary ID(s) of Target Chain>


> <UniProt (SwissProt) Alternative ID(s) of Target Chain>


> <UniProt (TrEMBL) Submitted Name of Target Chain>
Beta-lactamase

> <UniProt (TrEMBL) Entry Name of Target Chain>
O31272_AERVE

> <UniProt (TrEMBL) Primary ID of Target Chain>
O31272

> <UniProt (TrEMBL) Secondary ID(s) of Target Chain>


> <UniProt (TrEMBL) Alternative ID(s) of Target Chain>


$$$$

  Mrv0541 11211416132D          

 21 22  0  0  0  0            999 V2000
   -0.2369    0.4614    0.0000 N   0  0  0  0  0  0  0  0  0  0  0  0
    2.6189    2.1158    0.0000 B   0  0  0  0  0  0  0  0  0  0  0  0
   -1.6711   -2.8475    0.0000 B   0  0  0  0  0  0  0  0  0  0  0  0
    1.1847    2.1034    0.0000 C   0  0  0  0  0  0  0  0  0  0  0  0
    1.8956    1.6960    0.0000 C   0  0  0  0  0  0  0  0  0  0  0  0
    0.4781    0.8688    0.0000 C   0  0  0  0  0  0  0  0  0  0  0  0
    0.4781    1.6960    0.0000 C   0  0  0  0  0  0  0  0  0  0  0  0
   -0.2369   -0.3741    0.0000 N   0  0  0  0  0  0  0  0  0  0  0  0
   -1.6711   -2.0327    0.0000 C   0  0  0  0  0  0  0  0  0  0  0  0
   -0.9561   -1.6129    0.0000 C   0  0  0  0  0  0  0  0  0  0  0  0
    1.1847    0.4614    0.0000 C   0  0  0  0  0  0  0  0  0  0  0  0
    1.8956    0.8688    0.0000 C   0  0  0  0  0  0  0  0  0  0  0  0
   -0.9561   -0.7899    0.0000 C   0  0  0  0  0  0  0  0  0  0  0  0
   -0.2494    2.1158    0.0000 N   0  0  0  0  0  0  0  0  0  0  0  0
   -2.3819   -3.2674    0.0000 O   0  0  0  0  0  0  0  0  0  0  0  0
   -0.9561   -3.2674    0.0000 O   0  0  0  0  0  0  0  0  0  0  0  0
    2.6106    2.9389    0.0000 O   0  0  0  0  0  0  0  0  0  0  0  0
    3.3339    1.7043    0.0000 O   0  0  0  0  0  0  0  0  0  0  0  0
   -2.3819   -1.6129    0.0000 C   0  0  0  0  0  0  0  0  0  0  0  0
   -2.3819   -0.7981    0.0000 C   0  0  0  0  0  0  0  0  0  0  0  0
   -1.6711   -0.3783    0.0000 C   0  0  0  0  0  0  0  0  0  0  0  0
  2  5  1  0  0  0  0
  3  9  1  0  0  0  0
  4  7  2  0  0  0  0
  5 12  2  0  0  0  0
  6  1  1  0  0  0  0
  7  6  1  0  0  0  0
  8  1  2  0  0  0  0
  9 10  2  0  0  0  0
 10 13  1  0  0  0  0
 11  6  2  0  0  0  0
 12 11  1  0  0  0  0
 13  8  1  0  0  0  0
 14  7  1  0  0  0  0
 15  3  1  0  0  0  0
 16  3  1  0  0  0  0
 17  2  1  0  0  0  0
 18  2  1  0  0  0  0
 19 20  2  0  0  0  0
 20 21  1  0  0  0  0
 21 13  2  0  0  0  0
  4  5  1  0  0  0  0
  9 19  1  0  0  0  0
M  END
> <From>
www.bindingDB.org

> <BindingDB Reactant_set_id>
50275073

> <Ligand InChI>
InChI=1S/C12H13B2N3O4/c15-11-7-9(14(20)21)4-5-12(11)17-16-10-3-1-2-8(6-10)13(18)19/h1-7,18-21H,15H2/b17-16+

> <Ligand InChI Key>
OXQYOLWXPCHFLM-WUKNDPDISA-N

> <BindingDB MonomerID>
50149790

> <BindingDB Ligand Name>
Aza-boronic acid derivative::CHEMBL184830

> <Target Name>
Beta-lactamase

> <Target Source Organism According to Curator or DataSource>
Escherichia coli

> <Ki (nM)>
 2700

> <IC50 (nM)>


> <Kd (nM)>


> <EC50 (nM)>


> <kon (M-1-s-1)>


> <koff (s-1)>


> <pH>


> <Temp C>


> <Curation/DataSource>
ChEMBL

> <Article DOI>
10.1016/j.bmcl.2004.05.054

> <BindingDB Entry DOI>
10.7270/Q2XW4J8P

> <PMID>
15225711

> <PubChem AID>


> <Patent Number>


> <Authors>
Buzzoni, V; Blazquez, J; Ferrari, S; Calo, S; Venturelli, A; Costi, MP

> <Institution>
Universit&#224; degli Studi di Modena e Reggio Emilia

> <Link to Ligand in BindingDB>
http://www.bindingdb.org/bind/chemsearch/marvin/MolStructure.jsp?monomerid=50149790

> <Link to Ligand-Target Pair in BindingDB>
http://www.bindingdb.org/jsp/dbsearch/PrimarySearch_ki.jsp?energyterm=kJ/mole&tag=pol&polymerid=4401&target=Beta-lactamase&column=ki&startPg=0&Increment=50&submit=Search

> <Link to Ligand-Target Pair in BindingDB>
http://www.bindingdb.org/jsp/dbsearch/PrimarySearch_ki.jsp?energyterm=kJ/mole&tag=r21&monomerid=50149790&enzyme=Beta-lactamase&column=ki&startPg=0&Increment=50&submit=Search

> <Ligand HET ID in PDB>


> <PDB ID(s) for Ligand-Target Complex>


> <PubChem CID of Ligand>
44392746

> <PubChem SID of Ligand>
104037865

> <ChEBI ID of Ligand>


> <ChEMBL ID of Ligand>
CHEMBL184830

> <DrugBank ID of Ligand>


> <IUPHAR_GRAC ID of Ligand>


> <KEGG ID of Ligand>


> <ZINC ID of Ligand>


> <Number of Protein Chains in Target (bigger than 1 implies a multichain complex)>
1

> <BindingDB Target Chain Sequence>
MFKTTLCALLITASCSTFAAPQQINDIVHRTITPLIEQQKIPGMAVAVIYQGKPYYFTWGYADIAKKQPVTQQTLFELGSVSKTFTGVLGGDAIARGEIKLSDPTTKYWPELTAKQWNGITLLHLATYTAGGLPLQVPDEVKSSSDLLRFYQNWQPAWAPGTQRLYANSSIGLFGALAVKPSGLSFEQAMQTRVFQPLKLNHTWINVPPAEEKNYAWGYREGKAVHVSPGALDAEAYGVKSTIEDMARWVQSNLKPLDINEKTLQQGIQLAQSRYWQTGDMYQGLGWEMLDWPVNPDSIINGSDNKIALAARPVKAITPPTPAVRASWVHKTGATGGFGSYVAFIPEKELGIVMLANKNYPNPARVDAAWQILNALQ

> <PDB ID(s) of Target Chain>
1C3B,1FCO,1FSW,1FSY,1GA9,1IEL,1IEM,1KDS,1KDW,1KE0,1KE3,1KE4,1KVM,1L2S,1LL5,1LL9,1LLB,1MXO,1MY8,1XGI,1XGJ,2BLS,2HDQ,2HDR,2HDS,2HDU,2I72,2P9V,2PU2,2PU4,2R9W,2R9X,2RCX,3BLS,3BM6,3GQZ,3GR2,3GRJ,3GSG,3GTC,3GV9,3GVB,3O86,3O87,3O88,4E3I,4E3J,4E3K,4E3L,4E3M,4E3N,4E3O,4JXG,4JXS,4JXV,4JXW,4KG2,4KZ3,4KZ4,4KZ5,4KZ6,4KZ7,4KZ8,4KZ9,4KZA,4KZB,4LV0,4LV1,4LV2,4LV3,4OKP,4OLD,4OLG,6DPT,6DPX,6DPY,6DPZ,6T35,6T3D,6T5Y,6T7L,6TBW,6TPM,6WGQ,6YEN,6YEO,6YPD

> <UniProt (SwissProt) Recommended Name of Target Chain>
Beta-lactamase

> <UniProt (SwissProt) Entry Name of Target Chain>
AMPC_ECOLI

> <UniProt (SwissProt) Primary ID of Target Chain>
P00811

> <UniProt (SwissProt) Secondary ID(s) of Target Chain>
Q2M6F2

> <UniProt (SwissProt) Alternative ID(s) of Target Chain>


> <UniProt (TrEMBL) Submitted Name of Target Chain>


> <UniProt (TrEMBL) Entry Name of Target Chain>


> <UniProt (TrEMBL) Primary ID of Target Chain>


> <UniProt (TrEMBL) Secondary ID(s) of Target Chain>


> <UniProt (TrEMBL) Alternative ID(s) of Target Chain>


$$$$

  Mrv0541 11231414582D          

 18 20  0  0  0  0            999 V2000
   -0.6858  -11.8100    0.0000 C   0  0  0  0  0  0  0  0  0  0  0  0
   -0.6868  -12.6367    0.0000 C   0  0  0  0  0  0  0  0  0  0  0  0
    0.0270  -13.0493    0.0000 C   0  0  0  0  0  0  0  0  0  0  0  0
    0.0253  -11.3976    0.0000 C   0  0  0  0  0  0  0  0  0  0  0  0
    0.7396  -11.8067    0.0000 C   0  0  0  0  0  0  0  0  0  0  0  0
    0.7397  -12.6322    0.0000 C   0  0  0  0  0  0  0  0  0  0  0  0
    1.5248  -12.8872    0.0000 C   0  0  0  0  0  0  0  0  0  0  0  0
    2.0100  -12.2193    0.0000 O   0  0  0  0  0  0  0  0  0  0  0  0
    1.5247  -11.5516    0.0000 B   0  0  0  0  0  0  0  0  0  0  0  0
    1.7793  -10.7674    0.0000 O   0  0  0  0  0  0  0  0  0  0  0  0
   -1.3999  -11.3981    0.0000 O   0  0  0  0  0  0  0  0  0  0  0  0
   -2.1136  -11.8106    0.0000 C   0  0  0  0  0  0  0  0  0  0  0  0
   -2.8259  -11.3943    0.0000 C   0  0  0  0  0  0  0  0  0  0  0  0
   -3.5392  -11.8061    0.0000 C   0  0  0  0  0  0  0  0  0  0  0  0
   -3.5393  -12.6314    0.0000 C   0  0  0  0  0  0  0  0  0  0  0  0
   -2.8202  -13.0432    0.0000 C   0  0  0  0  0  0  0  0  0  0  0  0
   -2.1099  -12.6290    0.0000 C   0  0  0  0  0  0  0  0  0  0  0  0
   -4.2531  -11.3938    0.0000 N   0  0  0  0  0  0  0  0  0  0  0  0
  8  9  1  0  0  0  0
  9  5  1  0  0  0  0
  4  1  2  0  0  0  0
  9 10  1  0  0  0  0
  5  6  2  0  0  0  0
  1 11  1  0  0  0  0
 11 12  1  0  0  0  0
  2  3  2  0  0  0  0
 12 13  2  0  0  0  0
  3  6  1  0  0  0  0
 13 14  1  0  0  0  0
  1  2  1  0  0  0  0
 14 15  2  0  0  0  0
  5  4  1  0  0  0  0
 15 16  1  0  0  0  0
  6  7  1  0  0  0  0
 16 17  2  0  0  0  0
 17 12  1  0  0  0  0
  7  8  1  0  0  0  0
 14 18  1  0  0  0  0
M  END
> <From>
www.bindingDB.org

> <BindingDB Reactant_set_id>
50629868

> <Ligand InChI>
InChI=1S/C13H12BNO3/c15-10-2-1-3-11(6-10)18-12-5-4-9-8-17-14(16)13(9)7-12/h1-7,16H,8,15H2

> <Ligand InChI Key>
LDPQANUOAFUHJP-UHFFFAOYSA-N

> <BindingDB MonomerID>
50339857

> <BindingDB Ligand Name>
6-(3-aminophenoxy)benzo[c][1,2]oxaborol-1(3H)-ol::CHEMBL1761263

> <Target Name>
Beta-lactamase

> <Target Source Organism According to Curator or DataSource>
Enterobacter cloacae

> <Ki (nM)>
 2750

> <IC50 (nM)>


> <Kd (nM)>


> <EC50 (nM)>


> <kon (M-1-s-1)>


> <koff (s-1)>


> <pH>


> <Temp C>


> <Curation/DataSource>
ChEMBL

> <Article DOI>
10.1016/j.bmcl.2011.02.024

> <BindingDB Entry DOI>
10.7270/Q2G44QK5

> <PMID>
21392987

> <PubChem AID>


> <Patent Number>


> <Authors>
Xia, Y; Cao, K; Zhou, Y; Alley, MR; Rock, F; Mohan, M; Meewan, M; Baker, SJ; Lux, S; Ding, CZ; Jia, G; Kully, M; Plattner, JJ

> <Institution>
Anacor Pharmaceuticals Inc

> <Link to Ligand in BindingDB>
http://www.bindingdb.org/bind/chemsearch/marvin/MolStructure.jsp?monomerid=50339857

> <Link to Ligand-Target Pair in BindingDB>
http://www.bindingdb.org/jsp/dbsearch/PrimarySearch_ki.jsp?energyterm=kJ/mole&tag=pol&polymerid=50002394&target=Beta-lactamase&column=ki&startPg=0&Increment=50&submit=Search

> <Link to Ligand-Target Pair in BindingDB>
http://www.bindingdb.org/jsp/dbsearch/PrimarySearch_ki.jsp?energyterm=kJ/mole&tag=r21&monomerid=50339857&enzyme=Beta-lactamase&column=ki&startPg=0&Increment=50&submit=Search

> <Ligand HET ID in PDB>


> <PDB ID(s) for Ligand-Target Complex>


> <PubChem CID of Ligand>
44480165

> <PubChem SID of Ligand>
131342793

> <ChEBI ID of Ligand>


> <ChEMBL ID of Ligand>
CHEMBL1761263

> <DrugBank ID of Ligand>


> <IUPHAR_GRAC ID of Ligand>


> <KEGG ID of Ligand>


> <ZINC ID of Ligand>


> <Number of Protein Chains in Target (bigger than 1 implies a multichain complex)>
1

> <BindingDB Target Chain Sequence>
MMRKSLCCALLLGISCSALATPVSEKQLAEVVANTITPLMKAQSVPGMAVAVIYQGKPHYYTFGKADIAANKPVTPQTLFELGSISKTFTGVLGGDAIARGEISLDDAVTRYWPQLTGKQWQGIRMLDLATYTAGGLPLQVPDEVTDNASLLRFYQNWQPQWKPGTTRLYANASIGLFGALAVKPSGMPYEQAMTTRVLKPLKLDHTWINVPKAEEAHYAWGYRDGKAVRVSPGMLDAQAYGVKTNVQDMANWVMANMAPENVADASLKQGIALAQSRYWRIGSMYQGLGWEMLNWPVEANTVVEGSDSKVALAPLPVAEVNPPAPPVKASWVHKTGSTGGFGSYVAFIPEKQIGIVMLANTSYPNPARVEAAYHILEALQ

> <PDB ID(s) of Target Chain>
1XX2,2Q9M,2Q9N,7TI1

> <UniProt (SwissProt) Recommended Name of Target Chain>
Beta-lactamase

> <UniProt (SwissProt) Entry Name of Target Chain>
AMPC_ENTCL

> <UniProt (SwissProt) Primary ID of Target Chain>
P05364

> <UniProt (SwissProt) Secondary ID(s) of Target Chain>


> <UniProt (SwissProt) Alternative ID(s) of Target Chain>


> <UniProt (TrEMBL) Submitted Name of Target Chain>


> <UniProt (TrEMBL) Entry Name of Target Chain>


> <UniProt (TrEMBL) Primary ID of Target Chain>


> <UniProt (TrEMBL) Secondary ID(s) of Target Chain>


> <UniProt (TrEMBL) Alternative ID(s) of Target Chain>


$$$$

  Mrv0541 11231401522D          

 12 12  0  0  0  0            999 V2000
    4.2917   -3.3292    0.0000 B   0  0  0  0  0  0  0  0  0  0  0  0
    4.3000   -6.6292    0.0000 C   0  0  0  0  0  0  0  0  0  0  0  0
    4.2917   -4.1542    0.0000 C   0  0  0  0  0  0  0  0  0  0  0  0
    4.2917   -5.8042    0.0000 C   0  0  0  0  0  0  0  0  0  0  0  0
    3.5792   -7.0417    0.0000 O   0  0  0  0  0  0  0  0  0  0  0  0
    3.5792   -4.5667    0.0000 C   0  0  0  0  0  0  0  0  0  0  0  0
    5.0125   -4.5667    0.0000 C   0  0  0  0  0  0  0  0  0  0  0  0
    5.0125   -5.3917    0.0000 C   0  0  0  0  0  0  0  0  0  0  0  0
    3.5792   -5.3917    0.0000 C   0  0  0  0  0  0  0  0  0  0  0  0
    5.0125   -2.9167    0.0000 O   0  0  0  0  0  0  0  0  0  0  0  0
    3.5792   -2.9250    0.0000 O   0  0  0  0  0  0  0  0  0  0  0  0
    5.0125   -7.0417    0.0000 O   0  0  0  0  0  0  0  0  0  0  0  0
  2  4  1  0  0  0  0
  3  1  1  0  0  0  0
  4  8  1  0  0  0  0
  5  2  2  0  0  0  0
  6  3  2  0  0  0  0
  7  3  1  0  0  0  0
  8  7  2  0  0  0  0
  9  6  1  0  0  0  0
 10  1  1  0  0  0  0
 11  1  1  0  0  0  0
 12  2  1  0  0  0  0
  4  9  2  0  0  0  0
M  END
> <From>
www.bindingDB.org

> <BindingDB Reactant_set_id>
50117254

> <Ligand InChI>
InChI=1S/C7H7BO4/c9-7(10)5-1-3-6(4-2-5)8(11)12/h1-4,11-12H,(H,9,10)

> <Ligand InChI Key>
SIAVMDKGVRXFAX-UHFFFAOYSA-N

> <BindingDB MonomerID>
50067885

> <BindingDB Ligand Name>
4-CARBOXYPHENYLBORONIC ACID::4-Carboxyphenylboronicacid::4-boronobenzoic acid::4-phenylester boronic acid::Boronic acid derivative::CHEMBL82324

> <Target Name>
Beta-lactamase

> <Target Source Organism According to Curator or DataSource>
Escherichia coli

> <Ki (nM)>
 2900

> <IC50 (nM)>


> <Kd (nM)>


> <EC50 (nM)>


> <kon (M-1-s-1)>


> <koff (s-1)>


> <pH>


> <Temp C>


> <Curation/DataSource>
ChEMBL

> <Article DOI>
10.1021/jm980343w

> <BindingDB Entry DOI>
10.7270/Q22N51FX

> <PMID>
9804697

> <PubChem AID>


> <Patent Number>


> <Authors>
Weston, GS; Blazquez, J; Baquero, F; Shoichet, BK

> <Institution>
Northwestern University Medical School

> <Link to Ligand in BindingDB>
http://www.bindingdb.org/bind/chemsearch/marvin/MolStructure.jsp?monomerid=50067885

> <Link to Ligand-Target Pair in BindingDB>
http://www.bindingdb.org/jsp/dbsearch/PrimarySearch_ki.jsp?energyterm=kJ/mole&tag=pol&polymerid=4401&target=Beta-lactamase&column=ki&startPg=0&Increment=50&submit=Search

> <Link to Ligand-Target Pair in BindingDB>
http://www.bindingdb.org/jsp/dbsearch/PrimarySearch_ki.jsp?energyterm=kJ/mole&tag=r21&monomerid=50067885&enzyme=Beta-lactamase&column=ki&startPg=0&Increment=50&submit=Search

> <Ligand HET ID in PDB>
4CB

> <PDB ID(s) for Ligand-Target Complex>
1KDW

> <PubChem CID of Ligand>
312183

> <PubChem SID of Ligand>
103962311

> <ChEBI ID of Ligand>


> <ChEMBL ID of Ligand>
CHEMBL82324

> <DrugBank ID of Ligand>
DB03140

> <IUPHAR_GRAC ID of Ligand>


> <KEGG ID of Ligand>


> <ZINC ID of Ligand>


> <Number of Protein Chains in Target (bigger than 1 implies a multichain complex)>
1

> <BindingDB Target Chain Sequence>
MFKTTLCALLITASCSTFAAPQQINDIVHRTITPLIEQQKIPGMAVAVIYQGKPYYFTWGYADIAKKQPVTQQTLFELGSVSKTFTGVLGGDAIARGEIKLSDPTTKYWPELTAKQWNGITLLHLATYTAGGLPLQVPDEVKSSSDLLRFYQNWQPAWAPGTQRLYANSSIGLFGALAVKPSGLSFEQAMQTRVFQPLKLNHTWINVPPAEEKNYAWGYREGKAVHVSPGALDAEAYGVKSTIEDMARWVQSNLKPLDINEKTLQQGIQLAQSRYWQTGDMYQGLGWEMLDWPVNPDSIINGSDNKIALAARPVKAITPPTPAVRASWVHKTGATGGFGSYVAFIPEKELGIVMLANKNYPNPARVDAAWQILNALQ

> <PDB ID(s) of Target Chain>
1C3B,1FCO,1FSW,1FSY,1GA9,1IEL,1IEM,1KDS,1KDW,1KE0,1KE3,1KE4,1KVM,1L2S,1LL5,1LL9,1LLB,1MXO,1MY8,1XGI,1XGJ,2BLS,2HDQ,2HDR,2HDS,2HDU,2I72,2P9V,2PU2,2PU4,2R9W,2R9X,2RCX,3BLS,3BM6,3GQZ,3GR2,3GRJ,3GSG,3GTC,3GV9,3GVB,3O86,3O87,3O88,4E3I,4E3J,4E3K,4E3L,4E3M,4E3N,4E3O,4JXG,4JXS,4JXV,4JXW,4KG2,4KZ3,4KZ4,4KZ5,4KZ6,4KZ7,4KZ8,4KZ9,4KZA,4KZB,4LV0,4LV1,4LV2,4LV3,4OKP,4OLD,4OLG,6DPT,6DPX,6DPY,6DPZ,6T35,6T3D,6T5Y,6T7L,6TBW,6TPM,6WGQ,6YEN,6YEO,6YPD

> <UniProt (SwissProt) Recommended Name of Target Chain>
Beta-lactamase

> <UniProt (SwissProt) Entry Name of Target Chain>
AMPC_ECOLI

> <UniProt (SwissProt) Primary ID of Target Chain>
P00811

> <UniProt (SwissProt) Secondary ID(s) of Target Chain>
Q2M6F2

> <UniProt (SwissProt) Alternative ID(s) of Target Chain>


> <UniProt (TrEMBL) Submitted Name of Target Chain>


> <UniProt (TrEMBL) Entry Name of Target Chain>


> <UniProt (TrEMBL) Primary ID of Target Chain>


> <UniProt (TrEMBL) Secondary ID(s) of Target Chain>


> <UniProt (TrEMBL) Alternative ID(s) of Target Chain>


$$$$

  Mrv0541 11231401522D          

 12 12  0  0  0  0            999 V2000
    4.2917   -3.3292    0.0000 B   0  0  0  0  0  0  0  0  0  0  0  0
    4.3000   -6.6292    0.0000 C   0  0  0  0  0  0  0  0  0  0  0  0
    4.2917   -4.1542    0.0000 C   0  0  0  0  0  0  0  0  0  0  0  0
    4.2917   -5.8042    0.0000 C   0  0  0  0  0  0  0  0  0  0  0  0
    3.5792   -7.0417    0.0000 O   0  0  0  0  0  0  0  0  0  0  0  0
    3.5792   -4.5667    0.0000 C   0  0  0  0  0  0  0  0  0  0  0  0
    5.0125   -4.5667    0.0000 C   0  0  0  0  0  0  0  0  0  0  0  0
    5.0125   -5.3917    0.0000 C   0  0  0  0  0  0  0  0  0  0  0  0
    3.5792   -5.3917    0.0000 C   0  0  0  0  0  0  0  0  0  0  0  0
    5.0125   -2.9167    0.0000 O   0  0  0  0  0  0  0  0  0  0  0  0
    3.5792   -2.9250    0.0000 O   0  0  0  0  0  0  0  0  0  0  0  0
    5.0125   -7.0417    0.0000 O   0  0  0  0  0  0  0  0  0  0  0  0
  2  4  1  0  0  0  0
  3  1  1  0  0  0  0
  4  8  1  0  0  0  0
  5  2  2  0  0  0  0
  6  3  2  0  0  0  0
  7  3  1  0  0  0  0
  8  7  2  0  0  0  0
  9  6  1  0  0  0  0
 10  1  1  0  0  0  0
 11  1  1  0  0  0  0
 12  2  1  0  0  0  0
  4  9  2  0  0  0  0
M  END
> <From>
www.bindingDB.org

> <BindingDB Reactant_set_id>
50998442

> <Ligand InChI>
InChI=1S/C7H7BO4/c9-7(10)5-1-3-6(4-2-5)8(11)12/h1-4,11-12H,(H,9,10)

> <Ligand InChI Key>
SIAVMDKGVRXFAX-UHFFFAOYSA-N

> <BindingDB MonomerID>
50067885

> <BindingDB Ligand Name>
4-CARBOXYPHENYLBORONIC ACID::4-Carboxyphenylboronicacid::4-boronobenzoic acid::4-phenylester boronic acid::Boronic acid derivative::CHEMBL82324

> <Target Name>
Beta-lactamase

> <Target Source Organism According to Curator or DataSource>
Escherichia coli

> <Ki (nM)>
 2900

> <IC50 (nM)>


> <Kd (nM)>


> <EC50 (nM)>


> <kon (M-1-s-1)>


> <koff (s-1)>


> <pH>


> <Temp C>


> <Curation/DataSource>
ChEMBL

> <Article DOI>
10.1021/jm020002p

> <BindingDB Entry DOI>
10.7270/Q2CN737M

> <PMID>
12109906

> <PubChem AID>


> <Patent Number>


> <Authors>
Powers, RA; Shoichet, BK

> <Institution>
Northwestern University

> <Link to Ligand in BindingDB>
http://www.bindingdb.org/bind/chemsearch/marvin/MolStructure.jsp?monomerid=50067885

> <Link to Ligand-Target Pair in BindingDB>
http://www.bindingdb.org/jsp/dbsearch/PrimarySearch_ki.jsp?energyterm=kJ/mole&tag=pol&polymerid=4401&target=Beta-lactamase&column=ki&startPg=0&Increment=50&submit=Search

> <Link to Ligand-Target Pair in BindingDB>
http://www.bindingdb.org/jsp/dbsearch/PrimarySearch_ki.jsp?energyterm=kJ/mole&tag=r21&monomerid=50067885&enzyme=Beta-lactamase&column=ki&startPg=0&Increment=50&submit=Search

> <Ligand HET ID in PDB>
4CB

> <PDB ID(s) for Ligand-Target Complex>
1KDW

> <PubChem CID of Ligand>
312183

> <PubChem SID of Ligand>
103962311

> <ChEBI ID of Ligand>


> <ChEMBL ID of Ligand>
CHEMBL82324

> <DrugBank ID of Ligand>
DB03140

> <IUPHAR_GRAC ID of Ligand>


> <KEGG ID of Ligand>


> <ZINC ID of Ligand>


> <Number of Protein Chains in Target (bigger than 1 implies a multichain complex)>
1

> <BindingDB Target Chain Sequence>
MFKTTLCALLITASCSTFAAPQQINDIVHRTITPLIEQQKIPGMAVAVIYQGKPYYFTWGYADIAKKQPVTQQTLFELGSVSKTFTGVLGGDAIARGEIKLSDPTTKYWPELTAKQWNGITLLHLATYTAGGLPLQVPDEVKSSSDLLRFYQNWQPAWAPGTQRLYANSSIGLFGALAVKPSGLSFEQAMQTRVFQPLKLNHTWINVPPAEEKNYAWGYREGKAVHVSPGALDAEAYGVKSTIEDMARWVQSNLKPLDINEKTLQQGIQLAQSRYWQTGDMYQGLGWEMLDWPVNPDSIINGSDNKIALAARPVKAITPPTPAVRASWVHKTGATGGFGSYVAFIPEKELGIVMLANKNYPNPARVDAAWQILNALQ

> <PDB ID(s) of Target Chain>
1C3B,1FCO,1FSW,1FSY,1GA9,1IEL,1IEM,1KDS,1KDW,1KE0,1KE3,1KE4,1KVM,1L2S,1LL5,1LL9,1LLB,1MXO,1MY8,1XGI,1XGJ,2BLS,2HDQ,2HDR,2HDS,2HDU,2I72,2P9V,2PU2,2PU4,2R9W,2R9X,2RCX,3BLS,3BM6,3GQZ,3GR2,3GRJ,3GSG,3GTC,3GV9,3GVB,3O86,3O87,3O88,4E3I,4E3J,4E3K,4E3L,4E3M,4E3N,4E3O,4JXG,4JXS,4JXV,4JXW,4KG2,4KZ3,4KZ4,4KZ5,4KZ6,4KZ7,4KZ8,4KZ9,4KZA,4KZB,4LV0,4LV1,4LV2,4LV3,4OKP,4OLD,4OLG,6DPT,6DPX,6DPY,6DPZ,6T35,6T3D,6T5Y,6T7L,6TBW,6TPM,6WGQ,6YEN,6YEO,6YPD

> <UniProt (SwissProt) Recommended Name of Target Chain>
Beta-lactamase

> <UniProt (SwissProt) Entry Name of Target Chain>
AMPC_ECOLI

> <UniProt (SwissProt) Primary ID of Target Chain>
P00811

> <UniProt (SwissProt) Secondary ID(s) of Target Chain>
Q2M6F2

> <UniProt (SwissProt) Alternative ID(s) of Target Chain>


> <UniProt (TrEMBL) Submitted Name of Target Chain>


> <UniProt (TrEMBL) Entry Name of Target Chain>


> <UniProt (TrEMBL) Primary ID of Target Chain>


> <UniProt (TrEMBL) Secondary ID(s) of Target Chain>


> <UniProt (TrEMBL) Alternative ID(s) of Target Chain>


$$$$

  Mrv0541 11231401522D          

 11 11  0  0  0  0            999 V2000
    0.8809   -3.8237    0.0000 B   0  0  0  0  0  0  0  0  0  0  0  0
    1.7057   -3.8303    0.0000 C   0  0  0  0  0  0  0  0  0  0  0  0
    2.1181   -4.5463    0.0000 C   0  0  0  0  0  0  0  0  0  0  0  0
    2.1181   -3.1177    0.0000 C   0  0  0  0  0  0  0  0  0  0  0  0
    4.5958   -3.1111    0.0000 O   0  0  0  0  0  0  0  0  0  0  0  0
    0.4685   -3.1078    0.0000 O   0  0  0  0  0  0  0  0  0  0  0  0
    0.4586   -4.5364    0.0000 O   0  0  0  0  0  0  0  0  0  0  0  0
    4.1866   -3.8303    0.0000 C   0  0  0  0  0  0  0  0  0  0  0  0
    3.3586   -3.8336    0.0000 C   0  0  0  0  0  0  0  0  0  0  0  0
    2.9429   -3.1210    0.0000 C   0  0  0  0  0  0  0  0  0  0  0  0
    2.9494   -4.5463    0.0000 C   0  0  0  0  0  0  0  0  0  0  0  0
  2  1  1  0  0  0  0
  3  2  2  0  0  0  0
  4  2  1  0  0  0  0
  5  8  2  0  0  0  0
  6  1  1  0  0  0  0
  7  1  1  0  0  0  0
  8  9  1  0  0  0  0
  9 10  1  0  0  0  0
 10  4  2  0  0  0  0
 11  3  1  0  0  0  0
 11  9  2  0  0  0  0
M  END
> <From>
www.bindingDB.org

> <BindingDB Reactant_set_id>
50117265

> <Ligand InChI>
InChI=1S/C7H7BO3/c9-5-6-1-3-7(4-2-6)8(10)11/h1-5,10-11H

> <Ligand InChI Key>
VXWBQOJISHAKKM-UHFFFAOYSA-N

> <BindingDB MonomerID>
50067894

> <BindingDB Ligand Name>
4-benzaldehyde boronic acid::CHEMBL140254

> <Target Name>
Beta-lactamase

> <Target Source Organism According to Curator or DataSource>
Escherichia coli

> <Ki (nM)>
 2900

> <IC50 (nM)>


> <Kd (nM)>


> <EC50 (nM)>


> <kon (M-1-s-1)>


> <koff (s-1)>


> <pH>


> <Temp C>


> <Curation/DataSource>
ChEMBL

> <Article DOI>
10.1021/jm980343w

> <BindingDB Entry DOI>
10.7270/Q22N51FX

> <PMID>
9804697

> <PubChem AID>


> <Patent Number>


> <Authors>
Weston, GS; Blazquez, J; Baquero, F; Shoichet, BK

> <Institution>
Northwestern University Medical School

> <Link to Ligand in BindingDB>
http://www.bindingdb.org/bind/chemsearch/marvin/MolStructure.jsp?monomerid=50067894

> <Link to Ligand-Target Pair in BindingDB>
http://www.bindingdb.org/jsp/dbsearch/PrimarySearch_ki.jsp?energyterm=kJ/mole&tag=pol&polymerid=4401&target=Beta-lactamase&column=ki&startPg=0&Increment=50&submit=Search

> <Link to Ligand-Target Pair in BindingDB>
http://www.bindingdb.org/jsp/dbsearch/PrimarySearch_ki.jsp?energyterm=kJ/mole&tag=r21&monomerid=50067894&enzyme=Beta-lactamase&column=ki&startPg=0&Increment=50&submit=Search

> <Ligand HET ID in PDB>


> <PDB ID(s) for Ligand-Target Complex>


> <PubChem CID of Ligand>
591073

> <PubChem SID of Ligand>
103962320

> <ChEBI ID of Ligand>


> <ChEMBL ID of Ligand>
CHEMBL140254

> <DrugBank ID of Ligand>


> <IUPHAR_GRAC ID of Ligand>


> <KEGG ID of Ligand>


> <ZINC ID of Ligand>


> <Number of Protein Chains in Target (bigger than 1 implies a multichain complex)>
1

> <BindingDB Target Chain Sequence>
MFKTTLCALLITASCSTFAAPQQINDIVHRTITPLIEQQKIPGMAVAVIYQGKPYYFTWGYADIAKKQPVTQQTLFELGSVSKTFTGVLGGDAIARGEIKLSDPTTKYWPELTAKQWNGITLLHLATYTAGGLPLQVPDEVKSSSDLLRFYQNWQPAWAPGTQRLYANSSIGLFGALAVKPSGLSFEQAMQTRVFQPLKLNHTWINVPPAEEKNYAWGYREGKAVHVSPGALDAEAYGVKSTIEDMARWVQSNLKPLDINEKTLQQGIQLAQSRYWQTGDMYQGLGWEMLDWPVNPDSIINGSDNKIALAARPVKAITPPTPAVRASWVHKTGATGGFGSYVAFIPEKELGIVMLANKNYPNPARVDAAWQILNALQ

> <PDB ID(s) of Target Chain>
1C3B,1FCO,1FSW,1FSY,1GA9,1IEL,1IEM,1KDS,1KDW,1KE0,1KE3,1KE4,1KVM,1L2S,1LL5,1LL9,1LLB,1MXO,1MY8,1XGI,1XGJ,2BLS,2HDQ,2HDR,2HDS,2HDU,2I72,2P9V,2PU2,2PU4,2R9W,2R9X,2RCX,3BLS,3BM6,3GQZ,3GR2,3GRJ,3GSG,3GTC,3GV9,3GVB,3O86,3O87,3O88,4E3I,4E3J,4E3K,4E3L,4E3M,4E3N,4E3O,4JXG,4JXS,4JXV,4JXW,4KG2,4KZ3,4KZ4,4KZ5,4KZ6,4KZ7,4KZ8,4KZ9,4KZA,4KZB,4LV0,4LV1,4LV2,4LV3,4OKP,4OLD,4OLG,6DPT,6DPX,6DPY,6DPZ,6T35,6T3D,6T5Y,6T7L,6TBW,6TPM,6WGQ,6YEN,6YEO,6YPD

> <UniProt (SwissProt) Recommended Name of Target Chain>
Beta-lactamase

> <UniProt (SwissProt) Entry Name of Target Chain>
AMPC_ECOLI

> <UniProt (SwissProt) Primary ID of Target Chain>
P00811

> <UniProt (SwissProt) Secondary ID(s) of Target Chain>
Q2M6F2

> <UniProt (SwissProt) Alternative ID(s) of Target Chain>


> <UniProt (TrEMBL) Submitted Name of Target Chain>


> <UniProt (TrEMBL) Entry Name of Target Chain>


> <UniProt (TrEMBL) Primary ID of Target Chain>


> <UniProt (TrEMBL) Secondary ID(s) of Target Chain>


> <UniProt (TrEMBL) Alternative ID(s) of Target Chain>


$$$$
8
  Mrv0541 11181423542D          

 13 13  0  0  0  0            999 V2000
   -0.4062    2.6375    0.0000 C   0  0  0  0  0  0  0  0  0  0  0  0
   -1.1207    2.2250    0.0000 C   0  0  0  0  0  0  0  0  0  0  0  0
   -1.1207    1.4000    0.0000 C   0  0  0  0  0  0  0  0  0  0  0  0
   -0.4062    0.9875    0.0000 C   0  0  0  0  0  0  0  0  0  0  0  0
    0.3082    1.4000    0.0000 C   0  0  0  0  0  0  0  0  0  0  0  0
    0.3082    2.2250    0.0000 C   0  0  0  0  0  0  0  0  0  0  0  0
    1.0227    2.6375    0.0000 B   0  0  0  0  0  0  0  0  0  0  0  0
    1.0227    3.4625    0.0000 O   0  0  0  0  0  0  0  0  0  0  0  0
    1.7372    2.2250    0.0000 O   0  0  0  0  0  0  0  0  0  0  0  0
   -1.8352    0.9875    0.0000 C   0  0  0  0  0  0  0  0  0  0  0  0
   -2.5497    1.4000    0.0000 F   0  0  0  0  0  0  0  0  0  0  0  0
   -2.5497    0.5750    0.0000 F   0  0  0  0  0  0  0  0  0  0  0  0
   -1.8352    0.1625    0.0000 F   0  0  0  0  0  0  0  0  0  0  0  0
  1  2  2  0  0  0  0
  1  6  1  0  0  0  0
  2  3  1  0  0  0  0
  3  4  2  0  0  0  0
  4  5  1  0  0  0  0
  5  6  2  0  0  0  0
  6  7  1  0  0  0  0
  7  8  1  0  0  0  0
  7  9  1  0  0  0  0
  3 10  1  0  0  0  0
 10 13  1  0  0  0  0
 10 11  1  0  0  0  0
 10 12  1  0  0  0  0
M  END
> <From>
www.bindingDB.org

> <BindingDB Reactant_set_id>
50117267

> <Ligand InChI>
InChI=1S/C7H6BF3O2/c9-7(10,11)5-1-3-6(4-2-5)8(12)13/h1-4,12-13H

> <Ligand InChI Key>
ALMFIOZYDASRRC-UHFFFAOYSA-N

> <BindingDB MonomerID>
26129

> <BindingDB Ligand Name>
CHEMBL143654::Phenylboronic Acid, 8::[4-(trifluoromethyl)phenyl]boranediol

> <Target Name>
Beta-lactamase

> <Target Source Organism According to Curator or DataSource>
Escherichia coli

> <Ki (nM)>
 3000

> <IC50 (nM)>


> <Kd (nM)>


> <EC50 (nM)>


> <kon (M-1-s-1)>


> <koff (s-1)>


> <pH>


> <Temp C>


> <Curation/DataSource>
ChEMBL

> <Article DOI>
10.1021/jm980343w

> <BindingDB Entry DOI>
10.7270/Q22N51FX

> <PMID>
9804697

> <PubChem AID>


> <Patent Number>


> <Authors>
Weston, GS; Blazquez, J; Baquero, F; Shoichet, BK

> <Institution>
Northwestern University Medical School

> <Link to Ligand in BindingDB>
http://www.bindingdb.org/bind/chemsearch/marvin/MolStructure.jsp?monomerid=26129

> <Link to Ligand-Target Pair in BindingDB>
http://www.bindingdb.org/jsp/dbsearch/PrimarySearch_ki.jsp?energyterm=kJ/mole&tag=pol&polymerid=4401&target=Beta-lactamase&column=ki&startPg=0&Increment=50&submit=Search

> <Link to Ligand-Target Pair in BindingDB>
http://www.bindingdb.org/jsp/dbsearch/PrimarySearch_ki.jsp?energyterm=kJ/mole&tag=r21&monomerid=26129&enzyme=Beta-lactamase&column=ki&startPg=0&Increment=50&submit=Search

> <Ligand HET ID in PDB>


> <PDB ID(s) for Ligand-Target Complex>


> <PubChem CID of Ligand>
2734389

> <PubChem SID of Ligand>
56464566

> <ChEBI ID of Ligand>


> <ChEMBL ID of Ligand>
CHEMBL143654

> <DrugBank ID of Ligand>


> <IUPHAR_GRAC ID of Ligand>


> <KEGG ID of Ligand>


> <ZINC ID of Ligand>


> <Number of Protein Chains in Target (bigger than 1 implies a multichain complex)>
1

> <BindingDB Target Chain Sequence>
MFKTTLCALLITASCSTFAAPQQINDIVHRTITPLIEQQKIPGMAVAVIYQGKPYYFTWGYADIAKKQPVTQQTLFELGSVSKTFTGVLGGDAIARGEIKLSDPTTKYWPELTAKQWNGITLLHLATYTAGGLPLQVPDEVKSSSDLLRFYQNWQPAWAPGTQRLYANSSIGLFGALAVKPSGLSFEQAMQTRVFQPLKLNHTWINVPPAEEKNYAWGYREGKAVHVSPGALDAEAYGVKSTIEDMARWVQSNLKPLDINEKTLQQGIQLAQSRYWQTGDMYQGLGWEMLDWPVNPDSIINGSDNKIALAARPVKAITPPTPAVRASWVHKTGATGGFGSYVAFIPEKELGIVMLANKNYPNPARVDAAWQILNALQ

> <PDB ID(s) of Target Chain>
1C3B,1FCO,1FSW,1FSY,1GA9,1IEL,1IEM,1KDS,1KDW,1KE0,1KE3,1KE4,1KVM,1L2S,1LL5,1LL9,1LLB,1MXO,1MY8,1XGI,1XGJ,2BLS,2HDQ,2HDR,2HDS,2HDU,2I72,2P9V,2PU2,2PU4,2R9W,2R9X,2RCX,3BLS,3BM6,3GQZ,3GR2,3GRJ,3GSG,3GTC,3GV9,3GVB,3O86,3O87,3O88,4E3I,4E3J,4E3K,4E3L,4E3M,4E3N,4E3O,4JXG,4JXS,4JXV,4JXW,4KG2,4KZ3,4KZ4,4KZ5,4KZ6,4KZ7,4KZ8,4KZ9,4KZA,4KZB,4LV0,4LV1,4LV2,4LV3,4OKP,4OLD,4OLG,6DPT,6DPX,6DPY,6DPZ,6T35,6T3D,6T5Y,6T7L,6TBW,6TPM,6WGQ,6YEN,6YEO,6YPD

> <UniProt (SwissProt) Recommended Name of Target Chain>
Beta-lactamase

> <UniProt (SwissProt) Entry Name of Target Chain>
AMPC_ECOLI

> <UniProt (SwissProt) Primary ID of Target Chain>
P00811

> <UniProt (SwissProt) Secondary ID(s) of Target Chain>
Q2M6F2

> <UniProt (SwissProt) Alternative ID(s) of Target Chain>


> <UniProt (TrEMBL) Submitted Name of Target Chain>


> <UniProt (TrEMBL) Entry Name of Target Chain>


> <UniProt (TrEMBL) Primary ID of Target Chain>


> <UniProt (TrEMBL) Secondary ID(s) of Target Chain>


> <UniProt (TrEMBL) Alternative ID(s) of Target Chain>


$$$$

  Mrv0541 11211416132D          

 20 21  0  0  0  0            999 V2000
    2.3542    1.2500    0.0000 C   0  0  0  0  0  0  0  0  0  0  0  0
    1.6292    1.6625    0.0000 C   0  0  0  0  0  0  0  0  0  0  0  0
    2.3542    0.4250    0.0000 C   0  0  0  0  0  0  0  0  0  0  0  0
   -1.9333   -2.0667    0.0000 B   0  0  0  0  0  0  0  0  0  0  0  0
    0.2167    0.0000    0.0000 N   0  0  0  0  0  0  0  0  0  0  0  0
   -0.5000    0.4125    0.0000 N   0  0  0  0  0  0  0  0  0  0  0  0
   -1.9333   -1.2417    0.0000 C   0  0  0  0  0  0  0  0  0  0  0  0
    0.9167    1.2458    0.0000 C   0  0  0  0  0  0  0  0  0  0  0  0
    1.6417    0.0125    0.0000 C   0  0  0  0  0  0  0  0  0  0  0  0
    0.9292    0.4250    0.0000 C   0  0  0  0  0  0  0  0  0  0  0  0
   -1.2083   -0.8292    0.0000 C   0  0  0  0  0  0  0  0  0  0  0  0
   -1.2083    0.0000    0.0000 C   0  0  0  0  0  0  0  0  0  0  0  0
    3.0667    0.0125    0.0000 Cl  0  0  0  0  0  0  0  0  0  0  0  0
    1.6250    2.4875    0.0000 Cl  0  0  0  0  0  0  0  0  0  0  0  0
    3.0667    1.6625    0.0000 O   0  0  0  0  0  0  0  0  0  0  0  0
   -2.6458   -2.4792    0.0000 O   0  0  0  0  0  0  0  0  0  0  0  0
   -1.2083   -2.4792    0.0000 O   0  0  0  0  0  0  0  0  0  0  0  0
   -2.6458   -0.8292    0.0000 C   0  0  0  0  0  0  0  0  0  0  0  0
   -2.6458   -0.0042    0.0000 C   0  0  0  0  0  0  0  0  0  0  0  0
   -1.9333    0.4125    0.0000 C   0  0  0  0  0  0  0  0  0  0  0  0
  2  1  2  0  0  0  0
  3  1  1  0  0  0  0
  4  7  1  0  0  0  0
  5 10  1  0  0  0  0
  6  5  2  0  0  0  0
  7 11  2  0  0  0  0
  8  2  1  0  0  0  0
  9  3  2  0  0  0  0
 10  9  1  0  0  0  0
 11 12  1  0  0  0  0
  6 12  1  4  0  0  0
 13  3  1  0  0  0  0
 14  2  1  0  0  0  0
 15  1  1  0  0  0  0
 16  4  1  0  0  0  0
 17  4  1  0  0  0  0
 18 19  2  0  0  0  0
 19 20  1  0  0  0  0
 20 12  2  0  0  0  0
  8 10  2  0  0  0  0
  7 18  1  0  0  0  0
M  END
> <From>
www.bindingDB.org

> <BindingDB Reactant_set_id>
50275065

> <Ligand InChI>
InChI=1S/C12H9BCl2N2O3/c14-10-5-9(6-11(15)12(10)18)17-16-8-3-1-2-7(4-8)13(19)20/h1-6,18-20H

> <Ligand InChI Key>
MNSGFOUVUAWYQC-UHFFFAOYSA-N

> <BindingDB MonomerID>
50149782

> <BindingDB Ligand Name>
Aza-boronic acid derivative::CHEMBL181590

> <Target Name>
Beta-lactamase

> <Target Source Organism According to Curator or DataSource>
Escherichia coli

> <Ki (nM)>
 3000

> <IC50 (nM)>


> <Kd (nM)>


> <EC50 (nM)>


> <kon (M-1-s-1)>


> <koff (s-1)>


> <pH>


> <Temp C>


> <Curation/DataSource>
ChEMBL

> <Article DOI>
10.1016/j.bmcl.2004.05.054

> <BindingDB Entry DOI>
10.7270/Q2XW4J8P

> <PMID>
15225711

> <PubChem AID>


> <Patent Number>


> <Authors>
Buzzoni, V; Blazquez, J; Ferrari, S; Calo, S; Venturelli, A; Costi, MP

> <Institution>
Universit&#224; degli Studi di Modena e Reggio Emilia

> <Link to Ligand in BindingDB>
http://www.bindingdb.org/bind/chemsearch/marvin/MolStructure.jsp?monomerid=50149782

> <Link to Ligand-Target Pair in BindingDB>
http://www.bindingdb.org/jsp/dbsearch/PrimarySearch_ki.jsp?energyterm=kJ/mole&tag=pol&polymerid=4401&target=Beta-lactamase&column=ki&startPg=0&Increment=50&submit=Search

> <Link to Ligand-Target Pair in BindingDB>
http://www.bindingdb.org/jsp/dbsearch/PrimarySearch_ki.jsp?energyterm=kJ/mole&tag=r21&monomerid=50149782&enzyme=Beta-lactamase&column=ki&startPg=0&Increment=50&submit=Search

> <Ligand HET ID in PDB>


> <PDB ID(s) for Ligand-Target Complex>


> <PubChem CID of Ligand>
44392730

> <PubChem SID of Ligand>
104037857

> <ChEBI ID of Ligand>


> <ChEMBL ID of Ligand>
CHEMBL181590

> <DrugBank ID of Ligand>


> <IUPHAR_GRAC ID of Ligand>


> <KEGG ID of Ligand>


> <ZINC ID of Ligand>


> <Number of Protein Chains in Target (bigger than 1 implies a multichain complex)>
1

> <BindingDB Target Chain Sequence>
MFKTTLCALLITASCSTFAAPQQINDIVHRTITPLIEQQKIPGMAVAVIYQGKPYYFTWGYADIAKKQPVTQQTLFELGSVSKTFTGVLGGDAIARGEIKLSDPTTKYWPELTAKQWNGITLLHLATYTAGGLPLQVPDEVKSSSDLLRFYQNWQPAWAPGTQRLYANSSIGLFGALAVKPSGLSFEQAMQTRVFQPLKLNHTWINVPPAEEKNYAWGYREGKAVHVSPGALDAEAYGVKSTIEDMARWVQSNLKPLDINEKTLQQGIQLAQSRYWQTGDMYQGLGWEMLDWPVNPDSIINGSDNKIALAARPVKAITPPTPAVRASWVHKTGATGGFGSYVAFIPEKELGIVMLANKNYPNPARVDAAWQILNALQ

> <PDB ID(s) of Target Chain>
1C3B,1FCO,1FSW,1FSY,1GA9,1IEL,1IEM,1KDS,1KDW,1KE0,1KE3,1KE4,1KVM,1L2S,1LL5,1LL9,1LLB,1MXO,1MY8,1XGI,1XGJ,2BLS,2HDQ,2HDR,2HDS,2HDU,2I72,2P9V,2PU2,2PU4,2R9W,2R9X,2RCX,3BLS,3BM6,3GQZ,3GR2,3GRJ,3GSG,3GTC,3GV9,3GVB,3O86,3O87,3O88,4E3I,4E3J,4E3K,4E3L,4E3M,4E3N,4E3O,4JXG,4JXS,4JXV,4JXW,4KG2,4KZ3,4KZ4,4KZ5,4KZ6,4KZ7,4KZ8,4KZ9,4KZA,4KZB,4LV0,4LV1,4LV2,4LV3,4OKP,4OLD,4OLG,6DPT,6DPX,6DPY,6DPZ,6T35,6T3D,6T5Y,6T7L,6TBW,6TPM,6WGQ,6YEN,6YEO,6YPD

> <UniProt (SwissProt) Recommended Name of Target Chain>
Beta-lactamase

> <UniProt (SwissProt) Entry Name of Target Chain>
AMPC_ECOLI

> <UniProt (SwissProt) Primary ID of Target Chain>
P00811

> <UniProt (SwissProt) Secondary ID(s) of Target Chain>
Q2M6F2

> <UniProt (SwissProt) Alternative ID(s) of Target Chain>


> <UniProt (TrEMBL) Submitted Name of Target Chain>


> <UniProt (TrEMBL) Entry Name of Target Chain>


> <UniProt (TrEMBL) Primary ID of Target Chain>


> <UniProt (TrEMBL) Secondary ID(s) of Target Chain>


> <UniProt (TrEMBL) Alternative ID(s) of Target Chain>


$$$$

  Mrv0541 11211416132D          

 19 20  0  0  0  0            999 V2000
   -1.5083   -1.0417    0.0000 C   0  0  0  0  0  0  0  0  0  0  0  0
   -1.5083   -1.8667    0.0000 B   0  0  0  0  0  0  0  0  0  0  0  0
   -0.7958   -0.6292    0.0000 C   0  0  0  0  0  0  0  0  0  0  0  0
   -0.0708    0.6208    0.0000 N   0  0  0  0  0  0  0  0  0  0  0  0
    0.6417    0.2000    0.0000 N   0  0  0  0  0  0  0  0  0  0  0  0
   -2.2208   -0.6292    0.0000 C   0  0  0  0  0  0  0  0  0  0  0  0
   -0.7958    0.1958    0.0000 C   0  0  0  0  0  0  0  0  0  0  0  0
   -2.2208    0.1958    0.0000 C   0  0  0  0  0  0  0  0  0  0  0  0
    1.3542    0.6208    0.0000 C   0  0  0  0  0  0  0  0  0  0  0  0
   -0.7958   -2.2792    0.0000 O   0  0  0  0  0  0  0  0  0  0  0  0
   -2.2208   -2.2792    0.0000 O   0  0  0  0  0  0  0  0  0  0  0  0
    2.7792    1.4458    0.0000 C   0  0  0  0  0  0  0  0  0  0  0  0
   -1.5083    0.6000    0.0000 C   0  0  0  0  0  0  0  0  0  0  0  0
   -2.9333   -1.0417    0.0000 O   0  0  0  0  0  0  0  0  0  0  0  0
    3.4917    1.8708    0.0000 Br  0  0  0  0  0  0  0  0  0  0  0  0
    1.3417    1.4458    0.0000 C   0  0  0  0  0  0  0  0  0  0  0  0
    2.0667    0.2000    0.0000 C   0  0  0  0  0  0  0  0  0  0  0  0
    2.0542    1.8583    0.0000 C   0  0  0  0  0  0  0  0  0  0  0  0
    2.7792    0.6208    0.0000 C   0  0  0  0  0  0  0  0  0  0  0  0
  2  1  1  0  0  0  0
  3  1  2  0  0  0  0
  4  7  1  0  0  0  0
  5  4  2  0  0  0  0
  6  1  1  0  0  0  0
  7  3  1  0  0  0  0
  8  6  2  0  0  0  0
  5  9  1  4  0  0  0
 10  2  1  0  0  0  0
 11  2  1  0  0  0  0
 12 19  1  0  0  0  0
 13  8  1  0  0  0  0
 14  6  1  0  0  0  0
 15 12  1  0  0  0  0
 16  9  2  0  0  0  0
 17  9  1  0  0  0  0
 18 16  1  0  0  0  0
 19 17  2  0  0  0  0
  7 13  2  0  0  0  0
 18 12  2  0  0  0  0
M  END
> <From>
www.bindingDB.org

> <BindingDB Reactant_set_id>
50275062

> <Ligand InChI>
InChI=1S/C12H10BBrN2O3/c14-8-1-3-9(4-2-8)15-16-10-5-6-12(17)11(7-10)13(18)19/h1-7,17-19H

> <Ligand InChI Key>
IBNHSVBPKYGEMS-UHFFFAOYSA-N

> <BindingDB MonomerID>
50149781

> <BindingDB Ligand Name>
Aza-boronic acid derivative::CHEMBL368033

> <Target Name>
Beta-lactamase

> <Target Source Organism According to Curator or DataSource>
Escherichia coli

> <Ki (nM)>
 3000

> <IC50 (nM)>


> <Kd (nM)>


> <EC50 (nM)>


> <kon (M-1-s-1)>


> <koff (s-1)>


> <pH>


> <Temp C>


> <Curation/DataSource>
ChEMBL

> <Article DOI>
10.1016/j.bmcl.2004.05.054

> <BindingDB Entry DOI>
10.7270/Q2XW4J8P

> <PMID>
15225711

> <PubChem AID>


> <Patent Number>


> <Authors>
Buzzoni, V; Blazquez, J; Ferrari, S; Calo, S; Venturelli, A; Costi, MP

> <Institution>
Universit&#224; degli Studi di Modena e Reggio Emilia

> <Link to Ligand in BindingDB>
http://www.bindingdb.org/bind/chemsearch/marvin/MolStructure.jsp?monomerid=50149781

> <Link to Ligand-Target Pair in BindingDB>
http://www.bindingdb.org/jsp/dbsearch/PrimarySearch_ki.jsp?energyterm=kJ/mole&tag=pol&polymerid=4401&target=Beta-lactamase&column=ki&startPg=0&Increment=50&submit=Search

> <Link to Ligand-Target Pair in BindingDB>
http://www.bindingdb.org/jsp/dbsearch/PrimarySearch_ki.jsp?energyterm=kJ/mole&tag=r21&monomerid=50149781&enzyme=Beta-lactamase&column=ki&startPg=0&Increment=50&submit=Search

> <Ligand HET ID in PDB>


> <PDB ID(s) for Ligand-Target Complex>


> <PubChem CID of Ligand>
44392654

> <PubChem SID of Ligand>
104037856

> <ChEBI ID of Ligand>


> <ChEMBL ID of Ligand>
CHEMBL368033

> <DrugBank ID of Ligand>


> <IUPHAR_GRAC ID of Ligand>


> <KEGG ID of Ligand>


> <ZINC ID of Ligand>


> <Number of Protein Chains in Target (bigger than 1 implies a multichain complex)>
1

> <BindingDB Target Chain Sequence>
MFKTTLCALLITASCSTFAAPQQINDIVHRTITPLIEQQKIPGMAVAVIYQGKPYYFTWGYADIAKKQPVTQQTLFELGSVSKTFTGVLGGDAIARGEIKLSDPTTKYWPELTAKQWNGITLLHLATYTAGGLPLQVPDEVKSSSDLLRFYQNWQPAWAPGTQRLYANSSIGLFGALAVKPSGLSFEQAMQTRVFQPLKLNHTWINVPPAEEKNYAWGYREGKAVHVSPGALDAEAYGVKSTIEDMARWVQSNLKPLDINEKTLQQGIQLAQSRYWQTGDMYQGLGWEMLDWPVNPDSIINGSDNKIALAARPVKAITPPTPAVRASWVHKTGATGGFGSYVAFIPEKELGIVMLANKNYPNPARVDAAWQILNALQ

> <PDB ID(s) of Target Chain>
1C3B,1FCO,1FSW,1FSY,1GA9,1IEL,1IEM,1KDS,1KDW,1KE0,1KE3,1KE4,1KVM,1L2S,1LL5,1LL9,1LLB,1MXO,1MY8,1XGI,1XGJ,2BLS,2HDQ,2HDR,2HDS,2HDU,2I72,2P9V,2PU2,2PU4,2R9W,2R9X,2RCX,3BLS,3BM6,3GQZ,3GR2,3GRJ,3GSG,3GTC,3GV9,3GVB,3O86,3O87,3O88,4E3I,4E3J,4E3K,4E3L,4E3M,4E3N,4E3O,4JXG,4JXS,4JXV,4JXW,4KG2,4KZ3,4KZ4,4KZ5,4KZ6,4KZ7,4KZ8,4KZ9,4KZA,4KZB,4LV0,4LV1,4LV2,4LV3,4OKP,4OLD,4OLG,6DPT,6DPX,6DPY,6DPZ,6T35,6T3D,6T5Y,6T7L,6TBW,6TPM,6WGQ,6YEN,6YEO,6YPD

> <UniProt (SwissProt) Recommended Name of Target Chain>
Beta-lactamase

> <UniProt (SwissProt) Entry Name of Target Chain>
AMPC_ECOLI

> <UniProt (SwissProt) Primary ID of Target Chain>
P00811

> <UniProt (SwissProt) Secondary ID(s) of Target Chain>
Q2M6F2

> <UniProt (SwissProt) Alternative ID(s) of Target Chain>


> <UniProt (TrEMBL) Submitted Name of Target Chain>


> <UniProt (TrEMBL) Entry Name of Target Chain>


> <UniProt (TrEMBL) Primary ID of Target Chain>


> <UniProt (TrEMBL) Secondary ID(s) of Target Chain>


> <UniProt (TrEMBL) Alternative ID(s) of Target Chain>


$$$$
 
  Mrv0541 11221409272D          

 28 29  0  0  0  0            999 V2000
    9.6189   -1.2150    0.0000 C   0  0  0  0  0  0  0  0  0  0  0  0
   10.3348   -0.8025    0.0000 C   0  0  1  0  0  0  0  0  0  0  0  0
   11.1339   -1.0135    0.0000 C   0  0  1  0  0  0  0  0  0  0  0  0
   11.3449   -0.2186    0.0000 C   0  0  0  0  0  0  0  0  0  0  0  0
   12.0608    0.1939    0.0000 O   0  0  0  0  0  0  0  0  0  0  0  0
   10.5500   -0.0034    0.0000 N   0  0  0  0  0  0  0  0  0  0  0  0
   10.1375    0.7124    0.0000 S   0  0  0  0  0  0  0  0  0  0  0  0
    9.4216    0.2999    0.0000 O   0  0  0  0  0  0  0  0  0  0  0  0
   10.8534    1.1249    0.0000 O   0  0  0  0  0  0  0  0  0  0  0  0
    9.7250    1.4241    0.0000 O   0  0  0  0  0  0  0  0  0  0  0  0
   11.5464   -1.7294    0.0000 N   0  0  0  0  0  0  0  0  0  0  0  0
   11.1339   -2.4453    0.0000 C   0  0  0  0  0  0  0  0  0  0  0  0
   10.3047   -2.4453    0.0000 O   0  0  0  0  0  0  0  0  0  0  0  0
   11.5464   -3.1570    0.0000 C   0  0  0  0  0  0  0  0  0  0  0  0
   11.1339   -3.8728    0.0000 N   0  0  0  0  0  0  0  0  0  0  0  0
   10.3047   -3.8728    0.0000 O   0  0  0  0  0  0  0  0  0  0  0  0
    9.8922   -4.5887    0.0000 C   0  0  0  0  0  0  0  0  0  0  0  0
    9.1805   -4.1762    0.0000 C   0  0  0  0  0  0  0  0  0  0  0  0
    9.4797   -5.3004    0.0000 C   0  0  0  0  0  0  0  0  0  0  0  0
   10.6081   -5.0012    0.0000 C   0  0  0  0  0  0  0  0  0  0  0  0
   10.6081   -5.8262    0.0000 O   0  0  0  0  0  0  0  0  0  0  0  0
   11.3239   -4.5887    0.0000 O   0  0  0  0  0  0  0  0  0  0  0  0
   12.3714   -3.1570    0.0000 C   0  0  0  0  0  0  0  0  0  0  0  0
   12.8561   -2.4915    0.0000 C   0  0  0  0  0  0  0  0  0  0  0  0
   13.6408   -2.7445    0.0000 S   0  0  0  0  0  0  0  0  0  0  0  0
   13.6408   -3.5695    0.0000 C   0  0  0  0  0  0  0  0  0  0  0  0
   12.8561   -3.8266    0.0000 N   0  0  0  0  0  0  0  0  0  0  0  0
   14.3062   -4.0542    0.0000 N   0  0  0  0  0  0  0  0  0  0  0  0
  2  1  1  6  0  0  0
  2  3  1  0  0  0  0
  3  4  1  0  0  0  0
  4  5  2  0  0  0  0
  4  6  1  0  0  0  0
  2  6  1  0  0  0  0
  6  7  1  0  0  0  0
  7  8  2  0  0  0  0
  7  9  2  0  0  0  0
  7 10  1  0  0  0  0
  3 11  1  1  0  0  0
 11 12  1  0  0  0  0
 12 13  2  0  0  0  0
 12 14  1  0  0  0  0
 14 15  2  0  0  0  0
 15 16  1  0  0  0  0
 16 17  1  0  0  0  0
 17 18  1  0  0  0  0
 17 19  1  0  0  0  0
 17 20  1  0  0  0  0
 20 21  2  0  0  0  0
 20 22  1  0  0  0  0
 14 23  1  0  0  0  0
 23 24  2  0  0  0  0
 24 25  1  0  0  0  0
 25 26  1  0  0  0  0
 26 27  2  0  0  0  0
 23 27  1  0  0  0  0
 26 28  1  0  0  0  0
M  END
> <From>
www.bindingDB.org

> <BindingDB Reactant_set_id>
50619887

> <Ligand InChI>
InChI=1S/C13H17N5O8S2/c1-5-7(10(20)18(5)28(23,24)25)16-9(19)8(6-4-27-12(14)15-6)17-26-13(2,3)11(21)22/h4-5,7H,1-3H3,(H2,14,15)(H,16,19)(H,21,22)(H,23,24,25)/b17-8-/t5-,7-/m0/s1

> <Ligand InChI Key>
WZPBZJONDBGPKJ-VEHQQRBSSA-N

> <BindingDB MonomerID>
50240480

> <BindingDB Ligand Name>
(2S,3S)-3-({(2Z)-2-(2-ammonio-1,3-thiazol-4-yl)-2-[(1-carboxy-1-methylethoxy)imino]ethanoyl}amino)-2-methyl-4-oxoazetidine-1-sulfonate::(2S,3S)-3-({(2Z)-2-(2-ammonio-1,3-thiazol-4-yl)-2-[(1-carboxy-1-methylethoxy)imino]ethanoyl}amino)-2-methyl-4-oxoazetidine-1-sulfonate(aztreonam)::2-[1-(2-Amino-thiazol-4-yl)-1-((2S,3S)-2-methyl-4-oxo-1-sulfo-azetidin-3-ylcarbamoyl)-meth-(Z)-ylideneaminooxy]-2-methyl-propionic acid::AZTREONAM::Azactam::Azetreonam::CHEMBL158::SQ-26776

> <Target Name>
Beta-lactamase

> <Target Source Organism According to Curator or DataSource>
Acinetobacter baumannii

> <Ki (nM)>
 3000

> <IC50 (nM)>


> <Kd (nM)>


> <EC50 (nM)>


> <kon (M-1-s-1)>


> <koff (s-1)>


> <pH>


> <Temp C>


> <Curation/DataSource>
ChEMBL

> <Article DOI>
10.1128/AAC.00050-10

> <BindingDB Entry DOI>
10.7270/Q2348KM2

> <PMID>
20547808

> <PubChem AID>


> <Patent Number>


> <Authors>
Rodriguez-Martinez, JM; Nordmann, P; Ronco, E; Poirel, L

> <Institution>
Paris-Sud University

> <Link to Ligand in BindingDB>
http://www.bindingdb.org/bind/chemsearch/marvin/MolStructure.jsp?monomerid=50240480

> <Link to Ligand-Target Pair in BindingDB>
http://www.bindingdb.org/jsp/dbsearch/PrimarySearch_ki.jsp?energyterm=kJ/mole&tag=pol&polymerid=50004684&target=Beta-lactamase&column=ki&startPg=0&Increment=50&submit=Search

> <Link to Ligand-Target Pair in BindingDB>
http://www.bindingdb.org/jsp/dbsearch/PrimarySearch_ki.jsp?energyterm=kJ/mole&tag=r21&monomerid=50240480&enzyme=Beta-lactamase&column=ki&startPg=0&Increment=50&submit=Search

> <Ligand HET ID in PDB>


> <PDB ID(s) for Ligand-Target Complex>


> <PubChem CID of Ligand>
5742832

> <PubChem SID of Ligand>
104098313

> <ChEBI ID of Ligand>


> <ChEMBL ID of Ligand>
CHEMBL158

> <DrugBank ID of Ligand>


> <IUPHAR_GRAC ID of Ligand>


> <KEGG ID of Ligand>


> <ZINC ID of Ligand>
ZINC19795769

> <Number of Protein Chains in Target (bigger than 1 implies a multichain complex)>
1

> <BindingDB Target Chain Sequence>
MRFKKISCLLLSPLFIFSTSIYAGNTPKDQEIKKLVDQNFKPLLEKYDVPGMAVGVIQNNKKYEMYYGLQSVQDKKAVNRSTIFELGSVSKLFTATAGGYAKNKGKISFDDTPGKYWKELKNTPIDQVNLLQLATYTSGNLALQFPDEVQTDQQVLTFFKDWQPKNPIGEYRQYSNPSIGLFGKVVALSMNKPFDQVLEKTIFPALGLKHSYVNVPKTQMQNYAFGYNQENQPIRVNPGPLDAPAYGVKSTLPDMLSFIHANLNPQKYPADIQRAINETHQGFYQVNTMYQALGWEEFSYPATLQTLLDSNSEQIVMKPNKVTAISKEPSVKMYHKTGSTNGFGTYVVFIPKENIGLVMLTNKRIPNEERIKAAYAVLDAIKK

> <PDB ID(s) of Target Chain>
4QD4,8CUP,8CUQ,8FQN,8FQO,8FQV,8FQW

> <UniProt (SwissProt) Recommended Name of Target Chain>


> <UniProt (SwissProt) Entry Name of Target Chain>


> <UniProt (SwissProt) Primary ID of Target Chain>


> <UniProt (SwissProt) Secondary ID(s) of Target Chain>


> <UniProt (SwissProt) Alternative ID(s) of Target Chain>


> <UniProt (TrEMBL) Submitted Name of Target Chain>
Beta-lactamase

> <UniProt (TrEMBL) Entry Name of Target Chain>
D6NSM8_ACIBA

> <UniProt (TrEMBL) Primary ID of Target Chain>
D6NSM8

> <UniProt (TrEMBL) Secondary ID(s) of Target Chain>


> <UniProt (TrEMBL) Alternative ID(s) of Target Chain>


$$$$

  Mrv0541 11191401012D          

 32 34  0  0  0  0            999 V2000
   -0.7396    1.4778    0.0000 C   0  0  0  0  0  0  0  0  0  0  0  0
   -1.5646    1.4778    0.0000 C   0  0  0  0  0  0  0  0  0  0  0  0
   -1.9771    2.1922    0.0000 C   0  0  0  0  0  0  0  0  0  0  0  0
   -1.5646    2.9067    0.0000 C   0  0  0  0  0  0  0  0  0  0  0  0
   -0.7396    2.9067    0.0000 C   0  0  0  0  0  0  0  0  0  0  0  0
   -0.3271    2.1922    0.0000 C   0  0  0  0  0  0  0  0  0  0  0  0
   -1.9771    3.6212    0.0000 B   0  0  0  0  0  0  0  0  0  0  0  0
   -2.8021    3.6212    0.0000 O   0  0  0  0  0  0  0  0  0  0  0  0
   -1.5646    4.3356    0.0000 O   0  0  0  0  0  0  0  0  0  0  0  0
    0.4979    2.1922    0.0000 N   0  0  0  0  0  0  0  0  0  0  0  0
    0.9104    1.4778    0.0000 S   0  0  0  0  0  0  0  0  0  0  0  0
    0.4979    0.7633    0.0000 O   0  0  0  0  0  0  0  0  0  0  0  0
    1.7354    1.4778    0.0000 C   0  0  0  0  0  0  0  0  0  0  0  0
    1.3229    2.1923    0.0000 O   0  0  0  0  0  0  0  0  0  0  0  0
    2.9729    2.1923    0.0000 C   0  0  0  0  0  0  0  0  0  0  0  0
    2.1479    2.1923    0.0000 C   0  0  0  0  0  0  0  0  0  0  0  0
    2.1479    0.7633    0.0000 C   0  0  0  0  0  0  0  0  0  0  0  0
    2.9729    0.7634    0.0000 C   0  0  0  0  0  0  0  0  0  0  0  0
    3.3854    1.4778    0.0000 C   0  0  0  0  0  0  0  0  0  0  0  0
    3.5563    0.1800    0.0000 S   0  0  0  0  0  0  0  0  0  0  0  0
    4.2707    0.5925    0.0000 N   0  0  0  0  0  0  0  0  0  0  0  0
    2.8418   -0.2325    0.0000 O   0  0  0  0  0  0  0  0  0  0  0  0
    4.1396   -0.4034    0.0000 O   0  0  0  0  0  0  0  0  0  0  0  0
    4.9852    0.1800    0.0000 C   0  0  0  0  0  0  0  0  0  0  0  0
    5.6997    0.5925    0.0000 C   0  0  0  0  0  0  0  0  0  0  0  0
    4.9852   -0.6450    0.0000 C   0  0  0  0  0  0  0  0  0  0  0  0
    5.6997   -1.0575    0.0000 C   0  0  0  0  0  0  0  0  0  0  0  0
    6.4141   -0.6450    0.0000 C   0  0  0  0  0  0  0  0  0  0  0  0
    6.4141    0.1800    0.0000 C   0  0  0  0  0  0  0  0  0  0  0  0
    5.6997   -1.8825    0.0000 B   0  0  0  0  0  0  0  0  0  0  0  0
    6.4141   -2.2950    0.0000 O   0  0  0  0  0  0  0  0  0  0  0  0
    4.9852   -2.2950    0.0000 O   0  0  0  0  0  0  0  0  0  0  0  0
  1  2  2  0  0  0  0
  2  3  1  0  0  0  0
  3  4  2  0  0  0  0
  4  5  1  0  0  0  0
  5  6  2  0  0  0  0
  1  6  1  0  0  0  0
  4  7  1  0  0  0  0
  7  8  1  0  0  0  0
  7  9  1  0  0  0  0
  6 10  1  0  0  0  0
 10 11  1  0  0  0  0
 11 12  2  0  0  0  0
 11 13  1  0  0  0  0
 11 14  2  0  0  0  0
 16 13  2  0  0  0  0
 13 17  1  0  0  0  0
 15 16  1  0  0  0  0
 17 18  2  0  0  0  0
 18 19  1  0  0  0  0
 15 19  2  0  0  0  0
 18 20  1  0  0  0  0
 20 21  1  0  0  0  0
 20 22  2  0  0  0  0
 20 23  2  0  0  0  0
 21 24  1  0  0  0  0
 25 24  2  0  0  0  0
 24 26  1  0  0  0  0
 26 27  2  0  0  0  0
 27 28  1  0  0  0  0
 28 29  2  0  0  0  0
 25 29  1  0  0  0  0
 27 30  1  0  0  0  0
 30 31  1  0  0  0  0
 30 32  1  0  0  0  0
M  END
> <From>
www.bindingDB.org

> <BindingDB Reactant_set_id>
74847

> <Ligand InChI>
InChI=1S/C18H18B2N2O8S2/c23-19(24)13-4-1-6-15(10-13)21-31(27,28)17-8-3-9-18(12-17)32(29,30)22-16-7-2-5-14(11-16)20(25)26/h1-12,21-26H

> <Ligand InChI Key>
BKZJNYNXBZSUPD-UHFFFAOYSA-N

> <BindingDB MonomerID>
39849

> <BindingDB Ligand Name>
Amide and sulfonamide derivatives, 33

> <Target Name>
Beta-lactamase

> <Target Source Organism According to Curator or DataSource>
Staphylococcus aureus

> <Ki (nM)>
 3.2e+3

> <IC50 (nM)>


> <Kd (nM)>


> <EC50 (nM)>


> <kon (M-1-s-1)>


> <koff (s-1)>


> <pH>
7

> <Temp C>


> <Curation/DataSource>
Curated from the literature by BindingDB

> <Article DOI>
10.1016/S1074-5521(01)00034-5

> <BindingDB Entry DOI>
10.7270/Q27M06BZ

> <PMID>
11410378

> <PubChem AID>
aid1799472

> <Patent Number>


> <Authors>
Tondi, D; Powers, RA; Caselli, E; Negri, MC; Bl&aacute;zquez, J; Costi, MP; Shoichet, BK

> <Institution>
Northwestern University

> <Link to Ligand in BindingDB>
http://www.bindingdb.org/bind/chemsearch/marvin/MolStructure.jsp?monomerid=39849

> <Link to Ligand-Target Pair in BindingDB>
http://www.bindingdb.org/jsp/dbsearch/PrimarySearch_ki.jsp?energyterm=kJ/mole&tag=pol&polymerid=50000333&target=Beta-lactamase&column=ki&startPg=0&Increment=50&submit=Search

> <Link to Ligand-Target Pair in BindingDB>
http://www.bindingdb.org/jsp/dbsearch/PrimarySearch_ki.jsp?energyterm=kJ/mole&tag=r21&monomerid=39849&enzyme=Beta-lactamase&column=ki&startPg=0&Increment=50&submit=Search

> <Ligand HET ID in PDB>


> <PDB ID(s) for Ligand-Target Complex>


> <PubChem CID of Ligand>
9804998

> <PubChem SID of Ligand>
123080157

> <ChEBI ID of Ligand>


> <ChEMBL ID of Ligand>


> <DrugBank ID of Ligand>


> <IUPHAR_GRAC ID of Ligand>


> <KEGG ID of Ligand>


> <ZINC ID of Ligand>


> <Number of Protein Chains in Target (bigger than 1 implies a multichain complex)>
1

> <BindingDB Target Chain Sequence>
MKKLIFLIVIALVLSACNSNSSHAKELNDLEKKYNAHIGVYALDTKSGKEVKFNSDKRFAYASTSKAINSAILLEQVPYNKLNKKVHINKDDIVAYSPILEKYVGKDITLKALIEASMTYSDNTANNKIIKEIGGIKKVKQRLKELGDKVTNPVRYEIELNYYSPKSKKDTSTPAAFGKTLNKLIANGKLSKENKKFLLDLMLNNKSGDTLIKDGVPKDYKVADKSGQAITYASRNDVAFVYPKGQSEPIVLVIFTNKDNKSDKPNDKLISETAKSVMKEF

> <PDB ID(s) of Target Chain>
1OME,3BLM

> <UniProt (SwissProt) Recommended Name of Target Chain>
Beta-lactamase

> <UniProt (SwissProt) Entry Name of Target Chain>
BLAC_STAAU

> <UniProt (SwissProt) Primary ID of Target Chain>
P00807

> <UniProt (SwissProt) Secondary ID(s) of Target Chain>


> <UniProt (SwissProt) Alternative ID(s) of Target Chain>


> <UniProt (TrEMBL) Submitted Name of Target Chain>


> <UniProt (TrEMBL) Entry Name of Target Chain>


> <UniProt (TrEMBL) Primary ID of Target Chain>


> <UniProt (TrEMBL) Secondary ID(s) of Target Chain>


> <UniProt (TrEMBL) Alternative ID(s) of Target Chain>


$$$$

  Mrv0541 11241415352D          

 14 15  0  0  0  0            999 V2000
   -4.4889   -2.5666    0.0000 C   0  0  0  0  0  0  0  0  0  0  0  0
   -4.4901   -3.3940    0.0000 C   0  0  0  0  0  0  0  0  0  0  0  0
   -3.7753   -3.8069    0.0000 C   0  0  0  0  0  0  0  0  0  0  0  0
   -3.0588   -3.3935    0.0000 C   0  0  0  0  0  0  0  0  0  0  0  0
   -3.0617   -2.5630    0.0000 C   0  0  0  0  0  0  0  0  0  0  0  0
   -3.7771   -2.1539    0.0000 C   0  0  0  0  0  0  0  0  0  0  0  0
   -2.3478   -3.8029    0.0000 C   0  0  0  0  0  0  0  0  0  0  0  0
   -2.2602   -4.6233    0.0000 N   0  0  0  0  0  0  0  0  0  0  0  0
   -1.4530   -4.7935    0.0000 C   0  0  1  0  0  0  0  0  0  0  0  0
   -1.0416   -4.0784    0.0000 C   0  0  0  0  0  0  0  0  0  0  0  0
   -1.5946   -3.4663    0.0000 S   0  0  0  0  0  0  0  0  0  0  0  0
   -1.1162   -5.5467    0.0000 C   0  0  0  0  0  0  0  0  0  0  0  0
   -1.6001   -6.2149    0.0000 O   0  0  0  0  0  0  0  0  0  0  0  0
   -0.2956   -5.6316    0.0000 O   0  0  0  0  0  0  0  0  0  0  0  0
  1  2  2  0  0  0  0
  3  4  2  0  0  0  0
  4  5  1  0  0  0  0
  2  3  1  0  0  0  0
  9  8  1  0  0  0  0
  9 10  1  0  0  0  0
 10 11  1  0  0  0  0
 11  7  1  0  0  0  0
  4  7  1  0  0  0  0
  5  6  2  0  0  0  0
  9 12  1  1  0  0  0
  6  1  1  0  0  0  0
 12 13  1  0  0  0  0
  7  8  2  0  0  0  0
 12 14  2  0  0  0  0
M  END
> <From>
www.bindingDB.org

> <BindingDB Reactant_set_id>
51029285

> <Ligand InChI>
InChI=1S/C10H9NO2S/c12-10(13)8-6-14-9(11-8)7-4-2-1-3-5-7/h1-5,8H,6H2,(H,12,13)/t8-/m0/s1

> <Ligand InChI Key>
HOZQYTNELGLJMC-QMMMGPOBSA-N

> <BindingDB MonomerID>
50421220

> <BindingDB Ligand Name>
CHEMBL2087628

> <Target Name>
Beta-lactamase

> <Target Source Organism According to Curator or DataSource>
Pseudomonas aeruginosa

> <Ki (nM)>
 3300

> <IC50 (nM)>


> <Kd (nM)>


> <EC50 (nM)>


> <kon (M-1-s-1)>


> <koff (s-1)>


> <pH>


> <Temp C>


> <Curation/DataSource>
ChEMBL

> <Article DOI>
10.1016/j.bmcl.2012.08.012

> <BindingDB Entry DOI>
10.7270/Q2CF9RCZ

> <PMID>
22921080

> <PubChem AID>


> <Patent Number>


> <Authors>
Chen, P; Horton, LB; Mikulski, RL; Deng, L; Sundriyal, S; Palzkill, T; Song, Y

> <Institution>
Baylor College of Medicine

> <Link to Ligand in BindingDB>
http://www.bindingdb.org/bind/chemsearch/marvin/MolStructure.jsp?monomerid=50421220

> <Link to Ligand-Target Pair in BindingDB>
http://www.bindingdb.org/jsp/dbsearch/PrimarySearch_ki.jsp?energyterm=kJ/mole&tag=pol&polymerid=4684&target=Beta-lactamase&column=ki&startPg=0&Increment=50&submit=Search

> <Link to Ligand-Target Pair in BindingDB>
http://www.bindingdb.org/jsp/dbsearch/PrimarySearch_ki.jsp?energyterm=kJ/mole&tag=r21&monomerid=50421220&enzyme=Beta-lactamase&column=ki&startPg=0&Increment=50&submit=Search

> <Ligand HET ID in PDB>


> <PDB ID(s) for Ligand-Target Complex>


> <PubChem CID of Ligand>
7410566

> <PubChem SID of Ligand>
163370244

> <ChEBI ID of Ligand>


> <ChEMBL ID of Ligand>
CHEMBL2087628

> <DrugBank ID of Ligand>


> <IUPHAR_GRAC ID of Ligand>


> <KEGG ID of Ligand>


> <ZINC ID of Ligand>
ZINC19735671

> <Number of Protein Chains in Target (bigger than 1 implies a multichain complex)>
1

> <BindingDB Target Chain Sequence>
MSKLSVFFIFLFCSIATAAESLPDLKIEKLDEGVYVHTSFEEVNGWGVVPKHGLVVLVNAEAYLIDTPFTAKDTEKLVTWFVERGYKIKGSISSHFHSDSTGGIEWLNSRSIPTYASELTNELLKKDGKVQATNSFSGVNYWLVKNKIEVFYPGPGHTPDNVVVWLPERKILFGGCFIKPYGLGNLGDANIEAWPKSAKLLKSKYGKAKLVVPSHSEVGDASLLKLTLEQAVKGLNESKKPSKPSN

> <PDB ID(s) of Target Chain>
1DD6,1DDK,1JJE,1JJT,1VGN,2DOO,3WXC,4C1F,4C1G,4UAM,5EV6,5EV8,5EWA,5Y5B,6JED,6LBL,6ZYR,6ZYS,7DTM,7XHW,7YH9,7YHA

> <UniProt (SwissProt) Recommended Name of Target Chain>


> <UniProt (SwissProt) Entry Name of Target Chain>


> <UniProt (SwissProt) Primary ID of Target Chain>


> <UniProt (SwissProt) Secondary ID(s) of Target Chain>


> <UniProt (SwissProt) Alternative ID(s) of Target Chain>


> <UniProt (TrEMBL) Submitted Name of Target Chain>
Beta-lactamase

> <UniProt (TrEMBL) Entry Name of Target Chain>
Q79MP6_PSEAI

> <UniProt (TrEMBL) Primary ID of Target Chain>
Q79MP6

> <UniProt (TrEMBL) Secondary ID(s) of Target Chain>


> <UniProt (TrEMBL) Alternative ID(s) of Target Chain>


$$$$

  Mrv0541 11231414582D          

 19 21  0  0  0  0            999 V2000
   16.0573  -11.8134    0.0000 C   0  0  0  0  0  0  0  0  0  0  0  0
   16.0562  -12.6406    0.0000 C   0  0  0  0  0  0  0  0  0  0  0  0
   16.7705  -13.0533    0.0000 C   0  0  0  0  0  0  0  0  0  0  0  0
   16.7688  -11.4007    0.0000 C   0  0  0  0  0  0  0  0  0  0  0  0
   17.4835  -11.8100    0.0000 C   0  0  0  0  0  0  0  0  0  0  0  0
   17.4836  -12.6360    0.0000 C   0  0  0  0  0  0  0  0  0  0  0  0
   18.2693  -12.8912    0.0000 C   0  0  0  0  0  0  0  0  0  0  0  0
   18.7548  -12.2228    0.0000 O   0  0  0  0  0  0  0  0  0  0  0  0
   18.2691  -11.5547    0.0000 B   0  0  0  0  0  0  0  0  0  0  0  0
   18.5239  -10.7702    0.0000 O   0  0  0  0  0  0  0  0  0  0  0  0
   15.3427  -11.4012    0.0000 O   0  0  0  0  0  0  0  0  0  0  0  0
   14.6285  -11.8139    0.0000 C   0  0  0  0  0  0  0  0  0  0  0  0
   13.9158  -11.3974    0.0000 C   0  0  0  0  0  0  0  0  0  0  0  0
   13.2021  -11.8094    0.0000 C   0  0  0  0  0  0  0  0  0  0  0  0
   13.2019  -12.6352    0.0000 C   0  0  0  0  0  0  0  0  0  0  0  0
   13.9215  -13.0473    0.0000 C   0  0  0  0  0  0  0  0  0  0  0  0
   14.6323  -12.6328    0.0000 C   0  0  0  0  0  0  0  0  0  0  0  0
   12.4877  -11.3969    0.0000 C   0  0  0  0  0  0  0  0  0  0  0  0
   12.4878  -10.5719    0.0000 N   0  0  0  0  0  0  0  0  0  0  0  0
  9  5  1  0  0  0  0
  4  1  2  0  0  0  0
  9 10  1  0  0  0  0
  5  6  2  0  0  0  0
  1 11  1  0  0  0  0
 11 12  1  0  0  0  0
  2  3  2  0  0  0  0
 12 13  2  0  0  0  0
  3  6  1  0  0  0  0
 13 14  1  0  0  0  0
  1  2  1  0  0  0  0
 14 15  2  0  0  0  0
  5  4  1  0  0  0  0
 15 16  1  0  0  0  0
  6  7  1  0  0  0  0
 16 17  2  0  0  0  0
 17 12  1  0  0  0  0
  7  8  1  0  0  0  0
 14 18  1  0  0  0  0
  8  9  1  0  0  0  0
 18 19  1  0  0  0  0
M  END
> <From>
www.bindingDB.org

> <BindingDB Reactant_set_id>
50629870

> <Ligand InChI>
InChI=1S/C14H14BNO3/c16-8-10-2-1-3-12(6-10)19-13-5-4-11-9-18-15(17)14(11)7-13/h1-7,17H,8-9,16H2

> <Ligand InChI Key>
VLILMVBZOGKIMC-UHFFFAOYSA-N

> <BindingDB MonomerID>
50339859

> <BindingDB Ligand Name>
6-(3-(aminomethyl)phenoxy)benzo[c][1,2]oxaborol-1(3H)-ol::CHEMBL1761265

> <Target Name>
Beta-lactamase

> <Target Source Organism According to Curator or DataSource>
Enterobacter cloacae

> <Ki (nM)>
 3330

> <IC50 (nM)>


> <Kd (nM)>


> <EC50 (nM)>


> <kon (M-1-s-1)>


> <koff (s-1)>


> <pH>


> <Temp C>


> <Curation/DataSource>
ChEMBL

> <Article DOI>
10.1016/j.bmcl.2011.02.024

> <BindingDB Entry DOI>
10.7270/Q2G44QK5

> <PMID>
21392987

> <PubChem AID>


> <Patent Number>


> <Authors>
Xia, Y; Cao, K; Zhou, Y; Alley, MR; Rock, F; Mohan, M; Meewan, M; Baker, SJ; Lux, S; Ding, CZ; Jia, G; Kully, M; Plattner, JJ

> <Institution>
Anacor Pharmaceuticals Inc

> <Link to Ligand in BindingDB>
http://www.bindingdb.org/bind/chemsearch/marvin/MolStructure.jsp?monomerid=50339859

> <Link to Ligand-Target Pair in BindingDB>
http://www.bindingdb.org/jsp/dbsearch/PrimarySearch_ki.jsp?energyterm=kJ/mole&tag=pol&polymerid=50002394&target=Beta-lactamase&column=ki&startPg=0&Increment=50&submit=Search

> <Link to Ligand-Target Pair in BindingDB>
http://www.bindingdb.org/jsp/dbsearch/PrimarySearch_ki.jsp?energyterm=kJ/mole&tag=r21&monomerid=50339859&enzyme=Beta-lactamase&column=ki&startPg=0&Increment=50&submit=Search

> <Ligand HET ID in PDB>


> <PDB ID(s) for Ligand-Target Complex>


> <PubChem CID of Ligand>
54586111

> <PubChem SID of Ligand>
131342795

> <ChEBI ID of Ligand>


> <ChEMBL ID of Ligand>
CHEMBL1761265

> <DrugBank ID of Ligand>


> <IUPHAR_GRAC ID of Ligand>


> <KEGG ID of Ligand>


> <ZINC ID of Ligand>


> <Number of Protein Chains in Target (bigger than 1 implies a multichain complex)>
1

> <BindingDB Target Chain Sequence>
MMRKSLCCALLLGISCSALATPVSEKQLAEVVANTITPLMKAQSVPGMAVAVIYQGKPHYYTFGKADIAANKPVTPQTLFELGSISKTFTGVLGGDAIARGEISLDDAVTRYWPQLTGKQWQGIRMLDLATYTAGGLPLQVPDEVTDNASLLRFYQNWQPQWKPGTTRLYANASIGLFGALAVKPSGMPYEQAMTTRVLKPLKLDHTWINVPKAEEAHYAWGYRDGKAVRVSPGMLDAQAYGVKTNVQDMANWVMANMAPENVADASLKQGIALAQSRYWRIGSMYQGLGWEMLNWPVEANTVVEGSDSKVALAPLPVAEVNPPAPPVKASWVHKTGSTGGFGSYVAFIPEKQIGIVMLANTSYPNPARVEAAYHILEALQ

> <PDB ID(s) of Target Chain>
1XX2,2Q9M,2Q9N,7TI1

> <UniProt (SwissProt) Recommended Name of Target Chain>
Beta-lactamase

> <UniProt (SwissProt) Entry Name of Target Chain>
AMPC_ENTCL

> <UniProt (SwissProt) Primary ID of Target Chain>
P05364

> <UniProt (SwissProt) Secondary ID(s) of Target Chain>


> <UniProt (SwissProt) Alternative ID(s) of Target Chain>


> <UniProt (TrEMBL) Submitted Name of Target Chain>


> <UniProt (TrEMBL) Entry Name of Target Chain>


> <UniProt (TrEMBL) Primary ID of Target Chain>


> <UniProt (TrEMBL) Secondary ID(s) of Target Chain>


> <UniProt (TrEMBL) Alternative ID(s) of Target Chain>


$$$$
 
     RDKit          2D

 20 20  0  0  0  0  0  0  0  0999 V2000
   14.4410  -12.6211    0.0000 C   0  0  0  0  0  0  0  0  0  0  0  0
   15.1528  -12.2125    0.0000 C   0  0  0  0  0  0  0  0  0  0  0  0
   15.8605  -12.6211    0.0000 N   0  0  0  0  0  0  0  0  0  0  0  0
   15.1528  -11.3912    0.0000 O   0  0  0  0  0  0  0  0  0  0  0  0
   16.5723  -12.2125    0.0000 C   0  0  0  0  0  0  0  0  0  0  0  0
   17.2842  -12.6211    0.0000 B   0  0  0  0  0  0  0  0  0  0  0  0
   17.9960  -12.2125    0.0000 O   0  0  0  0  0  0  0  0  0  0  0  0
   17.2842  -13.4424    0.0000 O   0  0  0  0  0  0  0  0  0  0  0  0
   16.5723  -11.3953    0.0000 C   0  0  0  0  0  0  0  0  0  0  0  0
   17.2800  -10.9867    0.0000 C   0  0  0  0  0  0  0  0  0  0  0  0
   17.9876  -11.3976    0.0000 C   0  0  0  0  0  0  0  0  0  0  0  0
   18.6949  -10.9897    0.0000 C   0  0  0  0  0  0  0  0  0  0  0  0
   18.6953  -10.1716    0.0000 C   0  0  0  0  0  0  0  0  0  0  0  0
   17.9826   -9.7632    0.0000 C   0  0  0  0  0  0  0  0  0  0  0  0
   17.2783  -10.1735    0.0000 C   0  0  0  0  0  0  0  0  0  0  0  0
   13.7343  -12.2107    0.0000 C   0  0  0  0  0  0  0  0  0  0  0  0
   13.0255  -12.6175    0.0000 S   0  0  0  0  0  0  0  0  0  0  0  0
   14.4389  -13.4383    0.0000 C   0  0  0  0  0  0  0  0  0  0  0  0
   19.4025   -9.7621    0.0000 O   0  0  0  0  0  0  0  0  0  0  0  0
   20.1107  -10.1698    0.0000 C   0  0  0  0  0  0  0  0  0  0  0  0
  1  2  1  0
  2  3  1  0
  2  4  2  0
  3  5  1  0
  5  6  1  1
  6  7  1  0
  6  8  1  0
  5  9  1  0
  9 10  1  0
 10 11  2  0
 11 12  1  0
 12 13  2  0
 13 14  1  0
 14 15  2  0
 15 10  1  0
  1 16  1  0
 16 17  1  0
  1 18  1  6
 13 19  1  0
 19 20  1  0
M  END
> <From>
www.bindingDB.org

> <BindingDB Reactant_set_id>
51270505

> <Ligand InChI>
InChI=1S/C13H20BNO4S/c1-9(8-20)13(16)15-12(14(17)18)7-10-3-5-11(19-2)6-4-10/h3-6,9,12,17-18,20H,7-8H2,1-2H3,(H,15,16)/t9-,12+/m1/s1

> <Ligand InChI Key>
PQADIRATANJZTA-SKDRFNHKSA-N

> <BindingDB MonomerID>
50518878

> <BindingDB Ligand Name>
CHEMBL4464588

> <Target Name>
Beta-lactamase TEM

> <Target Source Organism According to Curator or DataSource>


> <Ki (nM)>
 3360

> <IC50 (nM)>


> <Kd (nM)>


> <EC50 (nM)>


> <kon (M-1-s-1)>


> <koff (s-1)>


> <pH>


> <Temp C>


> <Curation/DataSource>
ChEMBL

> <Article DOI>
10.1021/acs.jmedchem.9b00735

> <BindingDB Entry DOI>
10.7270/Q22R3W2M

> <PMID>
31269398

> <PubChem AID>


> <Patent Number>


> <Authors>
Wang, YL; Liu, S; Yu, ZJ; Lei, Y; Huang, MY; Yan, YH; Ma, Q; Zheng, Y; Deng, H; Sun, Y; Wu, C; Yu, Y; Chen, Q; Wang, Z; Wu, Y; Li, GB

> <Institution>
Sichuan University

> <Link to Ligand in BindingDB>
http://www.bindingdb.org/bind/chemsearch/marvin/MolStructure.jsp?monomerid=50518878

> <Link to Ligand-Target Pair in BindingDB>
http://www.bindingdb.org/jsp/dbsearch/PrimarySearch_ki.jsp?energyterm=kJ/mole&tag=pol&polymerid=7704&target=Beta-lactamase+TEM&column=ki&startPg=0&Increment=50&submit=Search

> <Link to Ligand-Target Pair in BindingDB>
http://www.bindingdb.org/jsp/dbsearch/PrimarySearch_ki.jsp?energyterm=kJ/mole&tag=r21&monomerid=50518878&enzyme=Beta-lactamase+TEM&column=ki&startPg=0&Increment=50&submit=Search

> <Ligand HET ID in PDB>


> <PDB ID(s) for Ligand-Target Complex>


> <PubChem CID of Ligand>
155530470

> <PubChem SID of Ligand>
440727460

> <ChEBI ID of Ligand>


> <ChEMBL ID of Ligand>


> <DrugBank ID of Ligand>


> <IUPHAR_GRAC ID of Ligand>


> <KEGG ID of Ligand>


> <ZINC ID of Ligand>


> <Number of Protein Chains in Target (bigger than 1 implies a multichain complex)>
1

> <BindingDB Target Chain Sequence>
MSIQHFRVALIPFFAAFCLPVFAHPETLVKVKDAEDQLGARVGYIELDLNSGKILESFRPEERFPMMSTFKVLLCGAVLSRVDAGQEQLGRRIHYSQNDLVEYSPVTEKHLTDGMTVRELCSAAITMSDNTAANLLLTTIGGPKELTAFLHNMGDHVTRLDRWEPELNEAIPNDERDTTMPAAMATTLRKLLTGELLTLASRQQLIDWMEADKVAGPLLRSALPAGWFIADKSGAGERGSRGIIAALGPDGKPSRIVVIYTTGSQATMDERNRQIAEIGASLIKHW

> <PDB ID(s) of Target Chain>
1ERM,1ERO,1ERQ,1ESU,1FQG,1JTD,1JVJ,1JWP,1JWV,1LHY,1LI9,1M40,1NXY,1NY0,1NYM,1NYY,1PZO,1PZP,1S0W,1XPB,1YT4,2V1Z,2V20,3CMZ,3DTM,3JYI,3P98,4DXB,4DXC,4GKU,4ZJ2,5AQ8,5HVI,5HW1,5HW5,5NPO,6B2N,7QLP,7QNK,7U6Q,8DE0

> <UniProt (SwissProt) Recommended Name of Target Chain>
Beta-lactamase TEM

> <UniProt (SwissProt) Entry Name of Target Chain>
BLAT_ECOLX

> <UniProt (SwissProt) Primary ID of Target Chain>
P62593

> <UniProt (SwissProt) Secondary ID(s) of Target Chain>
P00810 Q47313

> <UniProt (SwissProt) Alternative ID(s) of Target Chain>


> <UniProt (TrEMBL) Submitted Name of Target Chain>


> <UniProt (TrEMBL) Entry Name of Target Chain>


> <UniProt (TrEMBL) Primary ID of Target Chain>


> <UniProt (TrEMBL) Secondary ID(s) of Target Chain>


> <UniProt (TrEMBL) Alternative ID(s) of Target Chain>


$$$$

  Mrv0541 11211416132D          

 18 19  0  0  0  0            999 V2000
    0.6360    0.1455    0.0000 N   0  0  0  0  0  0  0  0  0  0  0  0
   -1.5090   -1.9247    0.0000 B   0  0  0  0  0  0  0  0  0  0  0  0
   -0.0831    0.5570    0.0000 N   0  0  0  0  0  0  0  0  0  0  0  0
   -1.5090   -1.1016    0.0000 C   0  0  0  0  0  0  0  0  0  0  0  0
    1.3510    0.5612    0.0000 C   0  0  0  0  0  0  0  0  0  0  0  0
   -0.7939   -0.6901    0.0000 C   0  0  0  0  0  0  0  0  0  0  0  0
    1.3344    1.3801    0.0000 C   0  0  0  0  0  0  0  0  0  0  0  0
   -0.7939    0.1372    0.0000 C   0  0  0  0  0  0  0  0  0  0  0  0
   -2.2156   -2.3362    0.0000 O   0  0  0  0  0  0  0  0  0  0  0  0
   -0.7939   -2.3362    0.0000 O   0  0  0  0  0  0  0  0  0  0  0  0
    0.6153    1.7791    0.0000 O   0  0  0  0  0  0  0  0  0  0  0  0
   -2.2156   -0.6901    0.0000 C   0  0  0  0  0  0  0  0  0  0  0  0
   -2.2156    0.1372    0.0000 C   0  0  0  0  0  0  0  0  0  0  0  0
    2.0577    0.1455    0.0000 C   0  0  0  0  0  0  0  0  0  0  0  0
   -1.5090    0.5445    0.0000 C   0  0  0  0  0  0  0  0  0  0  0  0
    2.0494    1.8041    0.0000 C   0  0  0  0  0  0  0  0  0  0  0  0
    2.7727    0.5612    0.0000 C   0  0  0  0  0  0  0  0  0  0  0  0
    2.7685    1.3801    0.0000 C   0  0  0  0  0  0  0  0  0  0  0  0
  2  4  1  0  0  0  0
  3  1  2  0  0  0  0
  4  6  2  0  0  0  0
  5  1  1  0  0  0  0
  6  8  1  0  0  0  0
  7  5  2  0  0  0  0
  3  8  1  4  0  0  0
  9  2  1  0  0  0  0
 10  2  1  0  0  0  0
 11  7  1  0  0  0  0
 12 13  2  0  0  0  0
 13 15  1  0  0  0  0
 14  5  1  0  0  0  0
 15  8  2  0  0  0  0
 16  7  1  0  0  0  0
 17 14  2  0  0  0  0
 18 17  1  0  0  0  0
 16 18  2  0  0  0  0
  4 12  1  0  0  0  0
M  END
> <From>
www.bindingDB.org

> <BindingDB Reactant_set_id>
50275074

> <Ligand InChI>
InChI=1S/C12H11BN2O3/c16-12-7-2-1-6-11(12)15-14-10-5-3-4-9(8-10)13(17)18/h1-8,16-18H

> <Ligand InChI Key>
LNCMNFWTKOJUEL-UHFFFAOYSA-N

> <BindingDB MonomerID>
50149791

> <BindingDB Ligand Name>
Aza-boronic acid derivative::CHEMBL181804

> <Target Name>
Beta-lactamase

> <Target Source Organism According to Curator or DataSource>
Escherichia coli

> <Ki (nM)>
 3500

> <IC50 (nM)>


> <Kd (nM)>


> <EC50 (nM)>


> <kon (M-1-s-1)>


> <koff (s-1)>


> <pH>


> <Temp C>


> <Curation/DataSource>
ChEMBL

> <Article DOI>
10.1016/j.bmcl.2004.05.054

> <BindingDB Entry DOI>
10.7270/Q2XW4J8P

> <PMID>
15225711

> <PubChem AID>


> <Patent Number>


> <Authors>
Buzzoni, V; Blazquez, J; Ferrari, S; Calo, S; Venturelli, A; Costi, MP

> <Institution>
Universit&#224; degli Studi di Modena e Reggio Emilia

> <Link to Ligand in BindingDB>
http://www.bindingdb.org/bind/chemsearch/marvin/MolStructure.jsp?monomerid=50149791

> <Link to Ligand-Target Pair in BindingDB>
http://www.bindingdb.org/jsp/dbsearch/PrimarySearch_ki.jsp?energyterm=kJ/mole&tag=pol&polymerid=4401&target=Beta-lactamase&column=ki&startPg=0&Increment=50&submit=Search

> <Link to Ligand-Target Pair in BindingDB>
http://www.bindingdb.org/jsp/dbsearch/PrimarySearch_ki.jsp?energyterm=kJ/mole&tag=r21&monomerid=50149791&enzyme=Beta-lactamase&column=ki&startPg=0&Increment=50&submit=Search

> <Ligand HET ID in PDB>


> <PDB ID(s) for Ligand-Target Complex>


> <PubChem CID of Ligand>
44392783

> <PubChem SID of Ligand>
104037866

> <ChEBI ID of Ligand>


> <ChEMBL ID of Ligand>
CHEMBL181804

> <DrugBank ID of Ligand>


> <IUPHAR_GRAC ID of Ligand>


> <KEGG ID of Ligand>


> <ZINC ID of Ligand>


> <Number of Protein Chains in Target (bigger than 1 implies a multichain complex)>
1

> <BindingDB Target Chain Sequence>
MFKTTLCALLITASCSTFAAPQQINDIVHRTITPLIEQQKIPGMAVAVIYQGKPYYFTWGYADIAKKQPVTQQTLFELGSVSKTFTGVLGGDAIARGEIKLSDPTTKYWPELTAKQWNGITLLHLATYTAGGLPLQVPDEVKSSSDLLRFYQNWQPAWAPGTQRLYANSSIGLFGALAVKPSGLSFEQAMQTRVFQPLKLNHTWINVPPAEEKNYAWGYREGKAVHVSPGALDAEAYGVKSTIEDMARWVQSNLKPLDINEKTLQQGIQLAQSRYWQTGDMYQGLGWEMLDWPVNPDSIINGSDNKIALAARPVKAITPPTPAVRASWVHKTGATGGFGSYVAFIPEKELGIVMLANKNYPNPARVDAAWQILNALQ

> <PDB ID(s) of Target Chain>
1C3B,1FCO,1FSW,1FSY,1GA9,1IEL,1IEM,1KDS,1KDW,1KE0,1KE3,1KE4,1KVM,1L2S,1LL5,1LL9,1LLB,1MXO,1MY8,1XGI,1XGJ,2BLS,2HDQ,2HDR,2HDS,2HDU,2I72,2P9V,2PU2,2PU4,2R9W,2R9X,2RCX,3BLS,3BM6,3GQZ,3GR2,3GRJ,3GSG,3GTC,3GV9,3GVB,3O86,3O87,3O88,4E3I,4E3J,4E3K,4E3L,4E3M,4E3N,4E3O,4JXG,4JXS,4JXV,4JXW,4KG2,4KZ3,4KZ4,4KZ5,4KZ6,4KZ7,4KZ8,4KZ9,4KZA,4KZB,4LV0,4LV1,4LV2,4LV3,4OKP,4OLD,4OLG,6DPT,6DPX,6DPY,6DPZ,6T35,6T3D,6T5Y,6T7L,6TBW,6TPM,6WGQ,6YEN,6YEO,6YPD

> <UniProt (SwissProt) Recommended Name of Target Chain>
Beta-lactamase

> <UniProt (SwissProt) Entry Name of Target Chain>
AMPC_ECOLI

> <UniProt (SwissProt) Primary ID of Target Chain>
P00811

> <UniProt (SwissProt) Secondary ID(s) of Target Chain>
Q2M6F2

> <UniProt (SwissProt) Alternative ID(s) of Target Chain>


> <UniProt (TrEMBL) Submitted Name of Target Chain>


> <UniProt (TrEMBL) Entry Name of Target Chain>


> <UniProt (TrEMBL) Primary ID of Target Chain>


> <UniProt (TrEMBL) Secondary ID(s) of Target Chain>


> <UniProt (TrEMBL) Alternative ID(s) of Target Chain>


$$$$

  Mrv0541 11231401522D          

 10 10  0  0  0  0            999 V2000
    0.8704    0.1443    0.0000 B   0  0  0  0  0  0  0  0  0  0  0  0
    0.1403   -0.2393    0.0000 C   0  0  0  0  0  0  0  0  0  0  0  0
   -0.5569    0.2062    0.0000 C   0  0  0  0  0  0  0  0  0  0  0  0
    0.1155   -1.0561    0.0000 C   0  0  0  0  0  0  0  0  0  0  0  0
    1.5635   -0.2888    0.0000 O   0  0  0  0  0  0  0  0  0  0  0  0
    0.8952    0.9611    0.0000 O   0  0  0  0  0  0  0  0  0  0  0  0
   -1.3200   -1.0066    0.0000 C   0  0  0  0  0  0  0  0  0  0  0  0
   -0.6146   -1.4479    0.0000 C   0  0  0  0  0  0  0  0  0  0  0  0
   -1.2829   -0.1856    0.0000 C   0  0  0  0  0  0  0  0  0  0  0  0
   -2.0378   -1.3902    0.0000 Br  0  0  0  0  0  0  0  0  0  0  0  0
  2  1  1  0  0  0  0
  3  2  2  0  0  0  0
  4  2  1  0  0  0  0
  5  1  1  0  0  0  0
  6  1  1  0  0  0  0
  7  8  1  0  0  0  0
  8  4  2  0  0  0  0
  9  3  1  0  0  0  0
 10  7  1  0  0  0  0
  7  9  2  0  0  0  0
M  END
> <From>
www.bindingDB.org

> <BindingDB Reactant_set_id>
50117262

> <Ligand InChI>
InChI=1S/C6H6BBrO2/c8-6-3-1-5(2-4-6)7(9)10/h1-4,9-10H

> <Ligand InChI Key>
QBLFZIBJXUQVRF-UHFFFAOYSA-N

> <BindingDB MonomerID>
50067892

> <BindingDB Ligand Name>
4-Bromophenyl-boronic acid::4-bromo phenyl boronic acid::4-bromophenyl boronic acid::4-bromophenylboronic acid::Boronic acid derivative::CHEMBL20866

> <Target Name>
Beta-lactamase

> <Target Source Organism According to Curator or DataSource>
Escherichia coli

> <Ki (nM)>
 3600

> <IC50 (nM)>


> <Kd (nM)>


> <EC50 (nM)>


> <kon (M-1-s-1)>


> <koff (s-1)>


> <pH>


> <Temp C>


> <Curation/DataSource>
ChEMBL

> <Article DOI>
10.1021/jm980343w

> <BindingDB Entry DOI>
10.7270/Q22N51FX

> <PMID>
9804697

> <PubChem AID>


> <Patent Number>


> <Authors>
Weston, GS; Blazquez, J; Baquero, F; Shoichet, BK

> <Institution>
Northwestern University Medical School

> <Link to Ligand in BindingDB>
http://www.bindingdb.org/bind/chemsearch/marvin/MolStructure.jsp?monomerid=50067892

> <Link to Ligand-Target Pair in BindingDB>
http://www.bindingdb.org/jsp/dbsearch/PrimarySearch_ki.jsp?energyterm=kJ/mole&tag=pol&polymerid=4401&target=Beta-lactamase&column=ki&startPg=0&Increment=50&submit=Search

> <Link to Ligand-Target Pair in BindingDB>
http://www.bindingdb.org/jsp/dbsearch/PrimarySearch_ki.jsp?energyterm=kJ/mole&tag=r21&monomerid=50067892&enzyme=Beta-lactamase&column=ki&startPg=0&Increment=50&submit=Search

> <Ligand HET ID in PDB>


> <PDB ID(s) for Ligand-Target Complex>


> <PubChem CID of Ligand>
79599

> <PubChem SID of Ligand>
103962318

> <ChEBI ID of Ligand>


> <ChEMBL ID of Ligand>
CHEMBL20866

> <DrugBank ID of Ligand>


> <IUPHAR_GRAC ID of Ligand>


> <KEGG ID of Ligand>


> <ZINC ID of Ligand>


> <Number of Protein Chains in Target (bigger than 1 implies a multichain complex)>
1

> <BindingDB Target Chain Sequence>
MFKTTLCALLITASCSTFAAPQQINDIVHRTITPLIEQQKIPGMAVAVIYQGKPYYFTWGYADIAKKQPVTQQTLFELGSVSKTFTGVLGGDAIARGEIKLSDPTTKYWPELTAKQWNGITLLHLATYTAGGLPLQVPDEVKSSSDLLRFYQNWQPAWAPGTQRLYANSSIGLFGALAVKPSGLSFEQAMQTRVFQPLKLNHTWINVPPAEEKNYAWGYREGKAVHVSPGALDAEAYGVKSTIEDMARWVQSNLKPLDINEKTLQQGIQLAQSRYWQTGDMYQGLGWEMLDWPVNPDSIINGSDNKIALAARPVKAITPPTPAVRASWVHKTGATGGFGSYVAFIPEKELGIVMLANKNYPNPARVDAAWQILNALQ

> <PDB ID(s) of Target Chain>
1C3B,1FCO,1FSW,1FSY,1GA9,1IEL,1IEM,1KDS,1KDW,1KE0,1KE3,1KE4,1KVM,1L2S,1LL5,1LL9,1LLB,1MXO,1MY8,1XGI,1XGJ,2BLS,2HDQ,2HDR,2HDS,2HDU,2I72,2P9V,2PU2,2PU4,2R9W,2R9X,2RCX,3BLS,3BM6,3GQZ,3GR2,3GRJ,3GSG,3GTC,3GV9,3GVB,3O86,3O87,3O88,4E3I,4E3J,4E3K,4E3L,4E3M,4E3N,4E3O,4JXG,4JXS,4JXV,4JXW,4KG2,4KZ3,4KZ4,4KZ5,4KZ6,4KZ7,4KZ8,4KZ9,4KZA,4KZB,4LV0,4LV1,4LV2,4LV3,4OKP,4OLD,4OLG,6DPT,6DPX,6DPY,6DPZ,6T35,6T3D,6T5Y,6T7L,6TBW,6TPM,6WGQ,6YEN,6YEO,6YPD

> <UniProt (SwissProt) Recommended Name of Target Chain>
Beta-lactamase

> <UniProt (SwissProt) Entry Name of Target Chain>
AMPC_ECOLI

> <UniProt (SwissProt) Primary ID of Target Chain>
P00811

> <UniProt (SwissProt) Secondary ID(s) of Target Chain>
Q2M6F2

> <UniProt (SwissProt) Alternative ID(s) of Target Chain>


> <UniProt (TrEMBL) Submitted Name of Target Chain>


> <UniProt (TrEMBL) Entry Name of Target Chain>


> <UniProt (TrEMBL) Primary ID of Target Chain>


> <UniProt (TrEMBL) Secondary ID(s) of Target Chain>


> <UniProt (TrEMBL) Alternative ID(s) of Target Chain>


$$$$

  SciTegic04181614082D

 28 31  0  0  0  0            999 V2000
   10.9102   -3.2484    0.0000 N   0  0
    9.4889   -3.7281    0.0000 N   0  0
    8.6154   -2.5245    0.0000 C   0  0
    9.4614   -1.3012    0.0000 N   0  0
   10.8931   -1.7485    0.0000 C   0  0
    7.1146   -2.5384    0.0000 S   0  0
    6.3513   -1.2462    0.0000 C   0  0
    4.8506   -1.2602    0.0000 C   0  0
    4.0872    0.0320    0.0000 N   0  0
    4.2606   -2.3052    0.0000 O   0  0
    2.5889    0.0182    0.0000 C   0  0
   12.0971   -0.8527    0.0000 C   0  0
   12.0353    0.6411    0.0000 C   0  0
   13.3027    1.4434    0.0000 C   0  0
   14.6312    0.7470    0.0000 C   0  0
   14.6924   -0.7518    0.0000 C   0  0
   13.4250   -1.5541    0.0000 C   0  0
   10.7066    1.3391    0.0000 C   0  0
    9.6924    0.6978    0.0000 O   0  0
   10.6580    2.5381    0.0000 O   0  0
    1.7138    1.2033    0.0000 N   0  0
    1.7138   -1.2033    0.0000 N   0  0
    0.2917   -0.7475    0.0000 C   0  0
    0.2917    0.7475    0.0000 C   0  0
   -1.0028    1.5132    0.0000 C   0  0
   -2.3155    0.7475    0.0000 C   0  0
   -2.3155   -0.7475    0.0000 C   0  0
   -1.0028   -1.5132    0.0000 C   0  0
  1  2  1  0
  2  3  2  0
  3  4  1  0
  4  5  1  0
  5  1  2  0
  3  6  1  0
  6  7  1  0
  7  8  1  0
  8  9  1  0
  8 10  2  0
  9 11  1  0
 12 13  2  0
 13 14  1  0
 14 15  2  0
 15 16  1  0
 16 17  2  0
 17 12  1  0
  5 12  1  0
 18 19  1  0
 18 20  2  0
 13 18  1  0
 11 21  2  0
 21 24  1  0
 23 22  1  0
 22 11  1  0
 23 24  2  0
 24 25  1  0
 25 26  2  0
 26 27  1  0
 27 28  2  0
 28 23  1  0
M  END
> <From>
www.bindingDB.org

> <BindingDB Reactant_set_id>
50342712

> <Ligand InChI>
InChI=1S/C18H14N6O3S/c25-14(21-17-19-12-7-3-4-8-13(12)20-17)9-28-18-22-15(23-24-18)10-5-1-2-6-11(10)16(26)27/h1-8H,9H2,(H,26,27)(H,22,23,24)(H2,19,20,21,25)

> <Ligand InChI Key>
MWUOXWJZZXSQFY-UHFFFAOYSA-N

> <BindingDB MonomerID>
50089389

> <BindingDB Ligand Name>
CHEMBL3577962

> <Target Name>
Beta-lactamase

> <Target Source Organism According to Curator or DataSource>


> <Ki (nM)>
 3600

> <IC50 (nM)>


> <Kd (nM)>


> <EC50 (nM)>


> <kon (M-1-s-1)>


> <koff (s-1)>


> <pH>


> <Temp C>


> <Curation/DataSource>
ChEMBL

> <Article DOI>
10.1021/ml500534c

> <BindingDB Entry DOI>
10.7270/Q2XP76P0

> <PMID>
25893049

> <PubChem AID>


> <Patent Number>


> <Authors>
Yang, SK; Kang, JS; Oelschlaeger, P; Yang, KW

> <Institution>
North-West University

> <Link to Ligand in BindingDB>
http://www.bindingdb.org/bind/chemsearch/marvin/MolStructure.jsp?monomerid=50089389

> <Link to Ligand-Target Pair in BindingDB>
http://www.bindingdb.org/jsp/dbsearch/PrimarySearch_ki.jsp?energyterm=kJ/mole&tag=pol&polymerid=50006888&target=Beta-lactamase&column=ki&startPg=0&Increment=50&submit=Search

> <Link to Ligand-Target Pair in BindingDB>
http://www.bindingdb.org/jsp/dbsearch/PrimarySearch_ki.jsp?energyterm=kJ/mole&tag=r21&monomerid=50089389&enzyme=Beta-lactamase&column=ki&startPg=0&Increment=50&submit=Search

> <Ligand HET ID in PDB>


> <PDB ID(s) for Ligand-Target Complex>


> <PubChem CID of Ligand>
122178132

> <PubChem SID of Ligand>
103988178

> <ChEBI ID of Ligand>


> <ChEMBL ID of Ligand>
CHEMBL3577962

> <DrugBank ID of Ligand>


> <IUPHAR_GRAC ID of Ligand>


> <KEGG ID of Ligand>


> <ZINC ID of Ligand>
ZINC26500301

> <Number of Protein Chains in Target (bigger than 1 implies a multichain complex)>
1

> <BindingDB Target Chain Sequence>
MMKGWIKCGLAGAVVLMASFWGGSVRAAGMSLTQQVSGPVYVVEDNYYVQENSMVYFGAKGVTVVGATWTPDTARELHKLIKRVSRKPVLEVINTNYHTDRAGGNAYWKSIGAKVISTRQTRDLMKSDWAEIVAFTRKGLPEYPDLPLVLPNVVHEGDFTLQEGKLRAFYLGPAHSPDGIFVYFPDQQVLYGNCILKEKLGNLSFADVKAYPQTLERLKAMKLPIKTVVGGHDSPLHGPELIDHYEALIKAASQS

> <PDB ID(s) of Target Chain>


> <UniProt (SwissProt) Recommended Name of Target Chain>


> <UniProt (SwissProt) Entry Name of Target Chain>


> <UniProt (SwissProt) Primary ID of Target Chain>


> <UniProt (SwissProt) Secondary ID(s) of Target Chain>


> <UniProt (SwissProt) Alternative ID(s) of Target Chain>


> <UniProt (TrEMBL) Submitted Name of Target Chain>
Beta-lactamase

> <UniProt (TrEMBL) Entry Name of Target Chain>
O31272_AERVE

> <UniProt (TrEMBL) Primary ID of Target Chain>
O31272

> <UniProt (TrEMBL) Secondary ID(s) of Target Chain>


> <UniProt (TrEMBL) Alternative ID(s) of Target Chain>


$$$$

  Mrv0541 11231401522D          

 10 10  0  0  0  0            999 V2000
    5.1279   -5.4480    0.0000 C   0  0  0  0  0  0  0  0  0  0  0  0
    5.6030   -6.1211    0.0000 C   0  0  0  0  0  0  0  0  0  0  0  0
    4.2997   -5.4447    0.0000 B   0  0  0  0  0  0  0  0  0  0  0  0
    5.6129   -4.7847    0.0000 S   0  0  0  0  0  0  0  0  0  0  0  0
    6.3950   -5.0487    0.0000 C   0  0  0  0  0  0  0  0  0  0  0  0
    6.3884   -5.8737    0.0000 C   0  0  0  0  0  0  0  0  0  0  0  0
    5.3391   -6.9032    0.0000 C   0  0  0  0  0  0  0  0  0  0  0  0
    4.5339   -7.0715    0.0000 O   0  0  0  0  0  0  0  0  0  0  0  0
    3.8839   -6.1607    0.0000 O   0  0  0  0  0  0  0  0  0  0  0  0
    3.8938   -4.7253    0.0000 O   0  0  0  0  0  0  0  0  0  0  0  0
  2  1  2  0  0  0  0
  3  1  1  0  0  0  0
  4  1  1  0  0  0  0
  5  4  1  0  0  0  0
  6  2  1  0  0  0  0
  7  2  1  0  0  0  0
  8  7  2  0  0  0  0
  9  3  1  0  0  0  0
 10  3  1  0  0  0  0
  5  6  2  0  0  0  0
M  END
> <From>
www.bindingDB.org

> <BindingDB Reactant_set_id>
50117283

> <Ligand InChI>
InChI=1S/C5H5BO3S/c7-3-4-1-2-10-5(4)6(8)9/h1-3,8-9H

> <Ligand InChI Key>
HYXMHAHVUFTVFZ-UHFFFAOYSA-N

> <BindingDB MonomerID>
50067901

> <BindingDB Ligand Name>
3-thiophenecarbaldehyde boronic acid::CHEMBL334932

> <Target Name>
Beta-lactamase

> <Target Source Organism According to Curator or DataSource>
Escherichia coli

> <Ki (nM)>
 3800

> <IC50 (nM)>


> <Kd (nM)>


> <EC50 (nM)>


> <kon (M-1-s-1)>


> <koff (s-1)>


> <pH>


> <Temp C>


> <Curation/DataSource>
ChEMBL

> <Article DOI>
10.1021/jm980343w

> <BindingDB Entry DOI>
10.7270/Q22N51FX

> <PMID>
9804697

> <PubChem AID>


> <Patent Number>


> <Authors>
Weston, GS; Blazquez, J; Baquero, F; Shoichet, BK

> <Institution>
Northwestern University Medical School

> <Link to Ligand in BindingDB>
http://www.bindingdb.org/bind/chemsearch/marvin/MolStructure.jsp?monomerid=50067901

> <Link to Ligand-Target Pair in BindingDB>
http://www.bindingdb.org/jsp/dbsearch/PrimarySearch_ki.jsp?energyterm=kJ/mole&tag=pol&polymerid=4401&target=Beta-lactamase&column=ki&startPg=0&Increment=50&submit=Search

> <Link to Ligand-Target Pair in BindingDB>
http://www.bindingdb.org/jsp/dbsearch/PrimarySearch_ki.jsp?energyterm=kJ/mole&tag=r21&monomerid=50067901&enzyme=Beta-lactamase&column=ki&startPg=0&Increment=50&submit=Search

> <Ligand HET ID in PDB>


> <PDB ID(s) for Ligand-Target Complex>


> <PubChem CID of Ligand>
2773429

> <PubChem SID of Ligand>
103962327

> <ChEBI ID of Ligand>


> <ChEMBL ID of Ligand>
CHEMBL334932

> <DrugBank ID of Ligand>


> <IUPHAR_GRAC ID of Ligand>


> <KEGG ID of Ligand>


> <ZINC ID of Ligand>


> <Number of Protein Chains in Target (bigger than 1 implies a multichain complex)>
1

> <BindingDB Target Chain Sequence>
MFKTTLCALLITASCSTFAAPQQINDIVHRTITPLIEQQKIPGMAVAVIYQGKPYYFTWGYADIAKKQPVTQQTLFELGSVSKTFTGVLGGDAIARGEIKLSDPTTKYWPELTAKQWNGITLLHLATYTAGGLPLQVPDEVKSSSDLLRFYQNWQPAWAPGTQRLYANSSIGLFGALAVKPSGLSFEQAMQTRVFQPLKLNHTWINVPPAEEKNYAWGYREGKAVHVSPGALDAEAYGVKSTIEDMARWVQSNLKPLDINEKTLQQGIQLAQSRYWQTGDMYQGLGWEMLDWPVNPDSIINGSDNKIALAARPVKAITPPTPAVRASWVHKTGATGGFGSYVAFIPEKELGIVMLANKNYPNPARVDAAWQILNALQ

> <PDB ID(s) of Target Chain>
1C3B,1FCO,1FSW,1FSY,1GA9,1IEL,1IEM,1KDS,1KDW,1KE0,1KE3,1KE4,1KVM,1L2S,1LL5,1LL9,1LLB,1MXO,1MY8,1XGI,1XGJ,2BLS,2HDQ,2HDR,2HDS,2HDU,2I72,2P9V,2PU2,2PU4,2R9W,2R9X,2RCX,3BLS,3BM6,3GQZ,3GR2,3GRJ,3GSG,3GTC,3GV9,3GVB,3O86,3O87,3O88,4E3I,4E3J,4E3K,4E3L,4E3M,4E3N,4E3O,4JXG,4JXS,4JXV,4JXW,4KG2,4KZ3,4KZ4,4KZ5,4KZ6,4KZ7,4KZ8,4KZ9,4KZA,4KZB,4LV0,4LV1,4LV2,4LV3,4OKP,4OLD,4OLG,6DPT,6DPX,6DPY,6DPZ,6T35,6T3D,6T5Y,6T7L,6TBW,6TPM,6WGQ,6YEN,6YEO,6YPD

> <UniProt (SwissProt) Recommended Name of Target Chain>
Beta-lactamase

> <UniProt (SwissProt) Entry Name of Target Chain>
AMPC_ECOLI

> <UniProt (SwissProt) Primary ID of Target Chain>
P00811

> <UniProt (SwissProt) Secondary ID(s) of Target Chain>
Q2M6F2

> <UniProt (SwissProt) Alternative ID(s) of Target Chain>


> <UniProt (TrEMBL) Submitted Name of Target Chain>


> <UniProt (TrEMBL) Entry Name of Target Chain>


> <UniProt (TrEMBL) Primary ID of Target Chain>


> <UniProt (TrEMBL) Secondary ID(s) of Target Chain>


> <UniProt (TrEMBL) Alternative ID(s) of Target Chain>


$$$$

  Mrv0541 11231401522D          

 12 12  0  0  0  0            999 V2000
    0.2601   -0.3293    0.0000 B   0  0  0  0  0  0  0  0  0  0  0  0
    3.5592   -0.3391    0.0000 B   0  0  0  0  0  0  0  0  0  0  0  0
    2.7393   -0.3391    0.0000 C   0  0  0  0  0  0  0  0  0  0  0  0
    1.0865   -0.3391    0.0000 C   0  0  0  0  0  0  0  0  0  0  0  0
    2.3212    0.3720    0.0000 C   0  0  0  0  0  0  0  0  0  0  0  0
    1.4948   -1.0569    0.0000 C   0  0  0  0  0  0  0  0  0  0  0  0
    2.3245   -1.0503    0.0000 C   0  0  0  0  0  0  0  0  0  0  0  0
    1.4948    0.3720    0.0000 C   0  0  0  0  0  0  0  0  0  0  0  0
   -0.1547   -1.0470    0.0000 O   0  0  0  0  0  0  0  0  0  0  0  0
   -0.1448    0.3819    0.0000 O   0  0  0  0  0  0  0  0  0  0  0  0
    3.9740   -1.0503    0.0000 O   0  0  0  0  0  0  0  0  0  0  0  0
    3.9707    0.3753    0.0000 O   0  0  0  0  0  0  0  0  0  0  0  0
  2  3  1  0  0  0  0
  3  5  2  0  0  0  0
  4  1  1  0  0  0  0
  5  8  1  0  0  0  0
  6  4  1  0  0  0  0
  7  6  2  0  0  0  0
  8  4  2  0  0  0  0
  9  1  1  0  0  0  0
 10  1  1  0  0  0  0
 11  2  1  0  0  0  0
 12  2  1  0  0  0  0
  7  3  1  0  0  0  0
M  END
> <From>
www.bindingDB.org

> <BindingDB Reactant_set_id>
50117285

> <Ligand InChI>
InChI=1S/C6H8B2O4/c9-7(10)5-1-2-6(4-3-5)8(11)12/h1-4,9-12H

> <Ligand InChI Key>
BODYVHJTUHHINQ-UHFFFAOYSA-N

> <BindingDB MonomerID>
50067903

> <BindingDB Ligand Name>
1,4 phenyl diboronic acid::CHEMBL140916

> <Target Name>
Beta-lactamase

> <Target Source Organism According to Curator or DataSource>
Escherichia coli

> <Ki (nM)>
 3900

> <IC50 (nM)>


> <Kd (nM)>


> <EC50 (nM)>


> <kon (M-1-s-1)>


> <koff (s-1)>


> <pH>


> <Temp C>


> <Curation/DataSource>
ChEMBL

> <Article DOI>
10.1021/jm980343w

> <BindingDB Entry DOI>
10.7270/Q22N51FX

> <PMID>
9804697

> <PubChem AID>


> <Patent Number>


> <Authors>
Weston, GS; Blazquez, J; Baquero, F; Shoichet, BK

> <Institution>
Northwestern University Medical School

> <Link to Ligand in BindingDB>
http://www.bindingdb.org/bind/chemsearch/marvin/MolStructure.jsp?monomerid=50067903

> <Link to Ligand-Target Pair in BindingDB>
http://www.bindingdb.org/jsp/dbsearch/PrimarySearch_ki.jsp?energyterm=kJ/mole&tag=pol&polymerid=4401&target=Beta-lactamase&column=ki&startPg=0&Increment=50&submit=Search

> <Link to Ligand-Target Pair in BindingDB>
http://www.bindingdb.org/jsp/dbsearch/PrimarySearch_ki.jsp?energyterm=kJ/mole&tag=r21&monomerid=50067903&enzyme=Beta-lactamase&column=ki&startPg=0&Increment=50&submit=Search

> <Ligand HET ID in PDB>


> <PDB ID(s) for Ligand-Target Complex>


> <PubChem CID of Ligand>
230478

> <PubChem SID of Ligand>
103962329

> <ChEBI ID of Ligand>


> <ChEMBL ID of Ligand>
CHEMBL140916

> <DrugBank ID of Ligand>


> <IUPHAR_GRAC ID of Ligand>


> <KEGG ID of Ligand>


> <ZINC ID of Ligand>


> <Number of Protein Chains in Target (bigger than 1 implies a multichain complex)>
1

> <BindingDB Target Chain Sequence>
MFKTTLCALLITASCSTFAAPQQINDIVHRTITPLIEQQKIPGMAVAVIYQGKPYYFTWGYADIAKKQPVTQQTLFELGSVSKTFTGVLGGDAIARGEIKLSDPTTKYWPELTAKQWNGITLLHLATYTAGGLPLQVPDEVKSSSDLLRFYQNWQPAWAPGTQRLYANSSIGLFGALAVKPSGLSFEQAMQTRVFQPLKLNHTWINVPPAEEKNYAWGYREGKAVHVSPGALDAEAYGVKSTIEDMARWVQSNLKPLDINEKTLQQGIQLAQSRYWQTGDMYQGLGWEMLDWPVNPDSIINGSDNKIALAARPVKAITPPTPAVRASWVHKTGATGGFGSYVAFIPEKELGIVMLANKNYPNPARVDAAWQILNALQ

> <PDB ID(s) of Target Chain>
1C3B,1FCO,1FSW,1FSY,1GA9,1IEL,1IEM,1KDS,1KDW,1KE0,1KE3,1KE4,1KVM,1L2S,1LL5,1LL9,1LLB,1MXO,1MY8,1XGI,1XGJ,2BLS,2HDQ,2HDR,2HDS,2HDU,2I72,2P9V,2PU2,2PU4,2R9W,2R9X,2RCX,3BLS,3BM6,3GQZ,3GR2,3GRJ,3GSG,3GTC,3GV9,3GVB,3O86,3O87,3O88,4E3I,4E3J,4E3K,4E3L,4E3M,4E3N,4E3O,4JXG,4JXS,4JXV,4JXW,4KG2,4KZ3,4KZ4,4KZ5,4KZ6,4KZ7,4KZ8,4KZ9,4KZA,4KZB,4LV0,4LV1,4LV2,4LV3,4OKP,4OLD,4OLG,6DPT,6DPX,6DPY,6DPZ,6T35,6T3D,6T5Y,6T7L,6TBW,6TPM,6WGQ,6YEN,6YEO,6YPD

> <UniProt (SwissProt) Recommended Name of Target Chain>
Beta-lactamase

> <UniProt (SwissProt) Entry Name of Target Chain>
AMPC_ECOLI

> <UniProt (SwissProt) Primary ID of Target Chain>
P00811

> <UniProt (SwissProt) Secondary ID(s) of Target Chain>
Q2M6F2

> <UniProt (SwissProt) Alternative ID(s) of Target Chain>


> <UniProt (TrEMBL) Submitted Name of Target Chain>


> <UniProt (TrEMBL) Entry Name of Target Chain>


> <UniProt (TrEMBL) Primary ID of Target Chain>


> <UniProt (TrEMBL) Secondary ID(s) of Target Chain>


> <UniProt (TrEMBL) Alternative ID(s) of Target Chain>


$$$$

  Mrv0541 11191401012D          

 20 21  0  0  0  0            999 V2000
   -0.7396    1.4778    0.0000 C   0  0  0  0  0  0  0  0  0  0  0  0
   -1.5646    1.4778    0.0000 C   0  0  0  0  0  0  0  0  0  0  0  0
   -1.9771    2.1922    0.0000 C   0  0  0  0  0  0  0  0  0  0  0  0
   -1.5646    2.9067    0.0000 C   0  0  0  0  0  0  0  0  0  0  0  0
   -0.7396    2.9067    0.0000 C   0  0  0  0  0  0  0  0  0  0  0  0
   -0.3271    2.1922    0.0000 C   0  0  0  0  0  0  0  0  0  0  0  0
   -1.9771    3.6212    0.0000 B   0  0  0  0  0  0  0  0  0  0  0  0
   -2.8021    3.6212    0.0000 O   0  0  0  0  0  0  0  0  0  0  0  0
   -1.5646    4.3356    0.0000 O   0  0  0  0  0  0  0  0  0  0  0  0
    0.4979    2.1922    0.0000 N   0  0  0  0  0  0  0  0  0  0  0  0
    0.9104    1.4778    0.0000 C   0  0  0  0  0  0  0  0  0  0  0  0
    0.4979    0.7633    0.0000 O   0  0  0  0  0  0  0  0  0  0  0  0
    1.7354    1.4778    0.0000 C   0  0  0  0  0  0  0  0  0  0  0  0
    2.4028    1.9627    0.0000 O   0  0  0  0  0  0  0  0  0  0  0  0
    1.9903    0.6932    0.0000 C   0  0  0  0  0  0  0  0  0  0  0  0
    2.8153    0.6932    0.0000 C   0  0  0  0  0  0  0  0  0  0  0  0
    3.0703    1.4778    0.0000 C   0  0  0  0  0  0  0  0  0  0  0  0
    3.8549    1.7327    0.0000 N   0  0  0  0  0  0  0  0  0  0  0  0
    4.0264    2.5397    0.0000 O   0  0  0  0  0  0  0  0  0  0  0  0
    4.4680    1.1807    0.0000 O   0  0  0  0  0  0  0  0  0  0  0  0
  1  2  2  0  0  0  0
  2  3  1  0  0  0  0
  3  4  2  0  0  0  0
  4  5  1  0  0  0  0
  5  6  2  0  0  0  0
  1  6  1  0  0  0  0
  4  7  1  0  0  0  0
  7  8  1  0  0  0  0
  7  9  1  0  0  0  0
  6 10  1  0  0  0  0
 10 11  1  0  0  0  0
 11 12  2  0  0  0  0
 11 13  1  0  0  0  0
 14 13  1  0  0  0  0
 13 15  2  0  0  0  0
 15 16  1  0  0  0  0
 16 17  2  0  0  0  0
 14 17  1  0  0  0  0
 17 18  1  0  0  0  0
 18 19  2  0  0  0  0
 18 20  2  0  0  0  0
M  END
> <From>
www.bindingDB.org

> <BindingDB Reactant_set_id>
74817

> <Ligand InChI>
InChI=1S/C11H9BN2O6/c15-11(9-4-5-10(20-9)14(18)19)13-8-3-1-2-7(6-8)12(16)17/h1-6,16-17H,(H,13,15)

> <Ligand InChI Key>
LUHGHANLDXWFAZ-UHFFFAOYSA-N

> <BindingDB MonomerID>
39831

> <BindingDB Ligand Name>
Amide and sulfonamide derivatives, 15

> <Target Name>
Beta-lactamase

> <Target Source Organism According to Curator or DataSource>
Escherichia coli

> <Ki (nM)>
 4.0e+3

> <IC50 (nM)>


> <Kd (nM)>


> <EC50 (nM)>


> <kon (M-1-s-1)>


> <koff (s-1)>


> <pH>
7

> <Temp C>


> <Curation/DataSource>
Curated from the literature by BindingDB

> <Article DOI>
10.1016/S1074-5521(01)00034-5

> <BindingDB Entry DOI>
10.7270/Q27M06BZ

> <PMID>
11410378

> <PubChem AID>
aid1799472

> <Patent Number>


> <Authors>
Tondi, D; Powers, RA; Caselli, E; Negri, MC; Bl&aacute;zquez, J; Costi, MP; Shoichet, BK

> <Institution>
Northwestern University

> <Link to Ligand in BindingDB>
http://www.bindingdb.org/bind/chemsearch/marvin/MolStructure.jsp?monomerid=39831

> <Link to Ligand-Target Pair in BindingDB>
http://www.bindingdb.org/jsp/dbsearch/PrimarySearch_ki.jsp?energyterm=kJ/mole&tag=pol&polymerid=4401&target=Beta-lactamase&column=ki&startPg=0&Increment=50&submit=Search

> <Link to Ligand-Target Pair in BindingDB>
http://www.bindingdb.org/jsp/dbsearch/PrimarySearch_ki.jsp?energyterm=kJ/mole&tag=r21&monomerid=39831&enzyme=Beta-lactamase&column=ki&startPg=0&Increment=50&submit=Search

> <Ligand HET ID in PDB>


> <PDB ID(s) for Ligand-Target Complex>


> <PubChem CID of Ligand>
9882049

> <PubChem SID of Ligand>
123080139

> <ChEBI ID of Ligand>


> <ChEMBL ID of Ligand>


> <DrugBank ID of Ligand>


> <IUPHAR_GRAC ID of Ligand>


> <KEGG ID of Ligand>
C06058

> <ZINC ID of Ligand>


> <Number of Protein Chains in Target (bigger than 1 implies a multichain complex)>
1

> <BindingDB Target Chain Sequence>
MFKTTLCALLITASCSTFAAPQQINDIVHRTITPLIEQQKIPGMAVAVIYQGKPYYFTWGYADIAKKQPVTQQTLFELGSVSKTFTGVLGGDAIARGEIKLSDPTTKYWPELTAKQWNGITLLHLATYTAGGLPLQVPDEVKSSSDLLRFYQNWQPAWAPGTQRLYANSSIGLFGALAVKPSGLSFEQAMQTRVFQPLKLNHTWINVPPAEEKNYAWGYREGKAVHVSPGALDAEAYGVKSTIEDMARWVQSNLKPLDINEKTLQQGIQLAQSRYWQTGDMYQGLGWEMLDWPVNPDSIINGSDNKIALAARPVKAITPPTPAVRASWVHKTGATGGFGSYVAFIPEKELGIVMLANKNYPNPARVDAAWQILNALQ

> <PDB ID(s) of Target Chain>
1C3B,1FCO,1FSW,1FSY,1GA9,1IEL,1IEM,1KDS,1KDW,1KE0,1KE3,1KE4,1KVM,1L2S,1LL5,1LL9,1LLB,1MXO,1MY8,1XGI,1XGJ,2BLS,2HDQ,2HDR,2HDS,2HDU,2I72,2P9V,2PU2,2PU4,2R9W,2R9X,2RCX,3BLS,3BM6,3GQZ,3GR2,3GRJ,3GSG,3GTC,3GV9,3GVB,3O86,3O87,3O88,4E3I,4E3J,4E3K,4E3L,4E3M,4E3N,4E3O,4JXG,4JXS,4JXV,4JXW,4KG2,4KZ3,4KZ4,4KZ5,4KZ6,4KZ7,4KZ8,4KZ9,4KZA,4KZB,4LV0,4LV1,4LV2,4LV3,4OKP,4OLD,4OLG,6DPT,6DPX,6DPY,6DPZ,6T35,6T3D,6T5Y,6T7L,6TBW,6TPM,6WGQ,6YEN,6YEO,6YPD

> <UniProt (SwissProt) Recommended Name of Target Chain>
Beta-lactamase

> <UniProt (SwissProt) Entry Name of Target Chain>
AMPC_ECOLI

> <UniProt (SwissProt) Primary ID of Target Chain>
P00811

> <UniProt (SwissProt) Secondary ID(s) of Target Chain>
Q2M6F2

> <UniProt (SwissProt) Alternative ID(s) of Target Chain>


> <UniProt (TrEMBL) Submitted Name of Target Chain>


> <UniProt (TrEMBL) Entry Name of Target Chain>


> <UniProt (TrEMBL) Primary ID of Target Chain>


> <UniProt (TrEMBL) Secondary ID(s) of Target Chain>


> <UniProt (TrEMBL) Alternative ID(s) of Target Chain>


$$$$

  Mrv0541 11191401012D          

 22 24  0  0  0  0            999 V2000
   -0.7396    1.4778    0.0000 C   0  0  0  0  0  0  0  0  0  0  0  0
   -1.5646    1.4778    0.0000 C   0  0  0  0  0  0  0  0  0  0  0  0
   -1.9771    2.1922    0.0000 C   0  0  0  0  0  0  0  0  0  0  0  0
   -1.5646    2.9067    0.0000 C   0  0  0  0  0  0  0  0  0  0  0  0
   -0.7396    2.9067    0.0000 C   0  0  0  0  0  0  0  0  0  0  0  0
   -0.3271    2.1922    0.0000 C   0  0  0  0  0  0  0  0  0  0  0  0
   -1.9771    3.6212    0.0000 B   0  0  0  0  0  0  0  0  0  0  0  0
   -2.8021    3.6212    0.0000 O   0  0  0  0  0  0  0  0  0  0  0  0
   -1.5646    4.3356    0.0000 O   0  0  0  0  0  0  0  0  0  0  0  0
    0.4979    2.1922    0.0000 N   0  0  0  0  0  0  0  0  0  0  0  0
    0.9104    1.4778    0.0000 C   0  0  0  0  0  0  0  0  0  0  0  0
    0.4979    0.7633    0.0000 O   0  0  0  0  0  0  0  0  0  0  0  0
    1.7354    1.4778    0.0000 C   0  0  0  0  0  0  0  0  0  0  0  0
    3.3854    1.4778    0.0000 C   0  0  0  0  0  0  0  0  0  0  0  0
    2.9730    2.1923    0.0000 C   0  0  0  0  0  0  0  0  0  0  0  0
    2.1479    2.1923    0.0000 C   0  0  0  0  0  0  0  0  0  0  0  0
    2.1480    0.7633    0.0000 C   0  0  0  0  0  0  0  0  0  0  0  0
    2.9729    0.7633    0.0000 C   0  0  0  0  0  0  0  0  0  0  0  0
    3.3854    0.0489    0.0000 C   0  0  0  0  0  0  0  0  0  0  0  0
    4.2105    0.0488    0.0000 C   0  0  0  0  0  0  0  0  0  0  0  0
    4.6230    0.7633    0.0000 C   0  0  0  0  0  0  0  0  0  0  0  0
    4.2104    1.4778    0.0000 C   0  0  0  0  0  0  0  0  0  0  0  0
  1  2  2  0  0  0  0
  2  3  1  0  0  0  0
  3  4  2  0  0  0  0
  4  5  1  0  0  0  0
  5  6  2  0  0  0  0
  1  6  1  0  0  0  0
  4  7  1  0  0  0  0
  7  8  1  0  0  0  0
  7  9  1  0  0  0  0
  6 10  1  0  0  0  0
 10 11  1  0  0  0  0
 11 12  2  0  0  0  0
 11 13  1  0  0  0  0
 16 13  2  0  0  0  0
 13 17  1  0  0  0  0
 14 15  2  0  0  0  0
 15 16  1  0  0  0  0
 17 18  2  0  0  0  0
 19 20  2  0  0  0  0
 20 21  1  0  0  0  0
 21 22  2  0  0  0  0
 14 18  1  0  0  0  0
 14 22  1  0  0  0  0
 18 19  1  0  0  0  0
M  END
> <From>
www.bindingDB.org

> <BindingDB Reactant_set_id>
74816

> <Ligand InChI>
InChI=1S/C17H14BNO3/c20-17(19-16-7-3-6-15(11-16)18(21)22)14-9-8-12-4-1-2-5-13(12)10-14/h1-11,21-22H,(H,19,20)

> <Ligand InChI Key>
FBCSHLAZCLVSRW-UHFFFAOYSA-N

> <BindingDB MonomerID>
39829

> <BindingDB Ligand Name>
Amide and sulfonamide derivatives, 14

> <Target Name>
Beta-lactamase

> <Target Source Organism According to Curator or DataSource>
Escherichia coli

> <Ki (nM)>
 4.0e+3

> <IC50 (nM)>


> <Kd (nM)>


> <EC50 (nM)>


> <kon (M-1-s-1)>


> <koff (s-1)>


> <pH>
7

> <Temp C>


> <Curation/DataSource>
Curated from the literature by BindingDB

> <Article DOI>
10.1016/S1074-5521(01)00034-5

> <BindingDB Entry DOI>
10.7270/Q27M06BZ

> <PMID>
11410378

> <PubChem AID>
aid1799472

> <Patent Number>


> <Authors>
Tondi, D; Powers, RA; Caselli, E; Negri, MC; Bl&aacute;zquez, J; Costi, MP; Shoichet, BK

> <Institution>
Northwestern University

> <Link to Ligand in BindingDB>
http://www.bindingdb.org/bind/chemsearch/marvin/MolStructure.jsp?monomerid=39829

> <Link to Ligand-Target Pair in BindingDB>
http://www.bindingdb.org/jsp/dbsearch/PrimarySearch_ki.jsp?energyterm=kJ/mole&tag=pol&polymerid=4401&target=Beta-lactamase&column=ki&startPg=0&Increment=50&submit=Search

> <Link to Ligand-Target Pair in BindingDB>
http://www.bindingdb.org/jsp/dbsearch/PrimarySearch_ki.jsp?energyterm=kJ/mole&tag=r21&monomerid=39829&enzyme=Beta-lactamase&column=ki&startPg=0&Increment=50&submit=Search

> <Ligand HET ID in PDB>


> <PDB ID(s) for Ligand-Target Complex>


> <PubChem CID of Ligand>
9904101

> <PubChem SID of Ligand>
123080137

> <ChEBI ID of Ligand>


> <ChEMBL ID of Ligand>


> <DrugBank ID of Ligand>


> <IUPHAR_GRAC ID of Ligand>


> <KEGG ID of Ligand>


> <ZINC ID of Ligand>


> <Number of Protein Chains in Target (bigger than 1 implies a multichain complex)>
1

> <BindingDB Target Chain Sequence>
MFKTTLCALLITASCSTFAAPQQINDIVHRTITPLIEQQKIPGMAVAVIYQGKPYYFTWGYADIAKKQPVTQQTLFELGSVSKTFTGVLGGDAIARGEIKLSDPTTKYWPELTAKQWNGITLLHLATYTAGGLPLQVPDEVKSSSDLLRFYQNWQPAWAPGTQRLYANSSIGLFGALAVKPSGLSFEQAMQTRVFQPLKLNHTWINVPPAEEKNYAWGYREGKAVHVSPGALDAEAYGVKSTIEDMARWVQSNLKPLDINEKTLQQGIQLAQSRYWQTGDMYQGLGWEMLDWPVNPDSIINGSDNKIALAARPVKAITPPTPAVRASWVHKTGATGGFGSYVAFIPEKELGIVMLANKNYPNPARVDAAWQILNALQ

> <PDB ID(s) of Target Chain>
1C3B,1FCO,1FSW,1FSY,1GA9,1IEL,1IEM,1KDS,1KDW,1KE0,1KE3,1KE4,1KVM,1L2S,1LL5,1LL9,1LLB,1MXO,1MY8,1XGI,1XGJ,2BLS,2HDQ,2HDR,2HDS,2HDU,2I72,2P9V,2PU2,2PU4,2R9W,2R9X,2RCX,3BLS,3BM6,3GQZ,3GR2,3GRJ,3GSG,3GTC,3GV9,3GVB,3O86,3O87,3O88,4E3I,4E3J,4E3K,4E3L,4E3M,4E3N,4E3O,4JXG,4JXS,4JXV,4JXW,4KG2,4KZ3,4KZ4,4KZ5,4KZ6,4KZ7,4KZ8,4KZ9,4KZA,4KZB,4LV0,4LV1,4LV2,4LV3,4OKP,4OLD,4OLG,6DPT,6DPX,6DPY,6DPZ,6T35,6T3D,6T5Y,6T7L,6TBW,6TPM,6WGQ,6YEN,6YEO,6YPD

> <UniProt (SwissProt) Recommended Name of Target Chain>
Beta-lactamase

> <UniProt (SwissProt) Entry Name of Target Chain>
AMPC_ECOLI

> <UniProt (SwissProt) Primary ID of Target Chain>
P00811

> <UniProt (SwissProt) Secondary ID(s) of Target Chain>
Q2M6F2

> <UniProt (SwissProt) Alternative ID(s) of Target Chain>


> <UniProt (TrEMBL) Submitted Name of Target Chain>


> <UniProt (TrEMBL) Entry Name of Target Chain>


> <UniProt (TrEMBL) Primary ID of Target Chain>


> <UniProt (TrEMBL) Secondary ID(s) of Target Chain>


> <UniProt (TrEMBL) Alternative ID(s) of Target Chain>


$$$$
 
     RDKit          2D

 19 19  0  0  0  0  0  0  0  0999 V2000
   32.3985   -4.5193    0.0000 C   0  0  0  0  0  0  0  0  0  0  0  0
   33.1104   -4.1107    0.0000 C   0  0  0  0  0  0  0  0  0  0  0  0
   33.8181   -4.5193    0.0000 N   0  0  0  0  0  0  0  0  0  0  0  0
   33.1104   -3.2894    0.0000 O   0  0  0  0  0  0  0  0  0  0  0  0
   34.5299   -4.1107    0.0000 C   0  0  0  0  0  0  0  0  0  0  0  0
   35.2417   -4.5193    0.0000 B   0  0  0  0  0  0  0  0  0  0  0  0
   35.9536   -4.1107    0.0000 O   0  0  0  0  0  0  0  0  0  0  0  0
   35.2417   -5.3406    0.0000 O   0  0  0  0  0  0  0  0  0  0  0  0
   34.5299   -3.2935    0.0000 C   0  0  0  0  0  0  0  0  0  0  0  0
   35.2376   -2.8849    0.0000 C   0  0  0  0  0  0  0  0  0  0  0  0
   35.9452   -3.2959    0.0000 C   0  0  0  0  0  0  0  0  0  0  0  0
   36.6524   -2.8880    0.0000 C   0  0  0  0  0  0  0  0  0  0  0  0
   36.6529   -2.0699    0.0000 C   0  0  0  0  0  0  0  0  0  0  0  0
   35.9402   -1.6615    0.0000 C   0  0  0  0  0  0  0  0  0  0  0  0
   35.2359   -2.0717    0.0000 C   0  0  0  0  0  0  0  0  0  0  0  0
   31.6918   -4.1089    0.0000 C   0  0  0  0  0  0  0  0  0  0  0  0
   30.9831   -4.5158    0.0000 S   0  0  0  0  0  0  0  0  0  0  0  0
   32.3965   -5.3365    0.0000 C   0  0  0  0  0  0  0  0  0  0  0  0
   37.3600   -1.6604    0.0000 F   0  0  0  0  0  0  0  0  0  0  0  0
  1  2  1  0
  2  3  1  0
  2  4  2  0
  3  5  1  0
  5  6  1  1
  6  7  1  0
  6  8  1  0
  5  9  1  0
  9 10  1  0
 10 11  2  0
 11 12  1  0
 12 13  2  0
 13 14  1  0
 14 15  2  0
 15 10  1  0
  1 16  1  0
 16 17  1  0
  1 18  1  6
 13 19  1  0
M  END
> <From>
www.bindingDB.org

> <BindingDB Reactant_set_id>
51270517

> <Ligand InChI>
InChI=1S/C12H17BFNO3S/c1-8(7-19)12(16)15-11(13(17)18)6-9-2-4-10(14)5-3-9/h2-5,8,11,17-19H,6-7H2,1H3,(H,15,16)/t8-,11+/m1/s1

> <Ligand InChI Key>
SYBMBVLEALMERL-KCJUWKMLSA-N

> <BindingDB MonomerID>
50518889

> <BindingDB Ligand Name>
CHEMBL4560468

> <Target Name>
Beta-lactamase TEM

> <Target Source Organism According to Curator or DataSource>


> <Ki (nM)>
 4160

> <IC50 (nM)>


> <Kd (nM)>


> <EC50 (nM)>


> <kon (M-1-s-1)>


> <koff (s-1)>


> <pH>


> <Temp C>


> <Curation/DataSource>
ChEMBL

> <Article DOI>
10.1021/acs.jmedchem.9b00735

> <BindingDB Entry DOI>
10.7270/Q22R3W2M

> <PMID>
31269398

> <PubChem AID>


> <Patent Number>


> <Authors>
Wang, YL; Liu, S; Yu, ZJ; Lei, Y; Huang, MY; Yan, YH; Ma, Q; Zheng, Y; Deng, H; Sun, Y; Wu, C; Yu, Y; Chen, Q; Wang, Z; Wu, Y; Li, GB

> <Institution>
Sichuan University

> <Link to Ligand in BindingDB>
http://www.bindingdb.org/bind/chemsearch/marvin/MolStructure.jsp?monomerid=50518889

> <Link to Ligand-Target Pair in BindingDB>
http://www.bindingdb.org/jsp/dbsearch/PrimarySearch_ki.jsp?energyterm=kJ/mole&tag=pol&polymerid=7704&target=Beta-lactamase+TEM&column=ki&startPg=0&Increment=50&submit=Search

> <Link to Ligand-Target Pair in BindingDB>
http://www.bindingdb.org/jsp/dbsearch/PrimarySearch_ki.jsp?energyterm=kJ/mole&tag=r21&monomerid=50518889&enzyme=Beta-lactamase+TEM&column=ki&startPg=0&Increment=50&submit=Search

> <Ligand HET ID in PDB>


> <PDB ID(s) for Ligand-Target Complex>


> <PubChem CID of Ligand>
155558613

> <PubChem SID of Ligand>
440727471

> <ChEBI ID of Ligand>


> <ChEMBL ID of Ligand>


> <DrugBank ID of Ligand>


> <IUPHAR_GRAC ID of Ligand>


> <KEGG ID of Ligand>


> <ZINC ID of Ligand>


> <Number of Protein Chains in Target (bigger than 1 implies a multichain complex)>
1

> <BindingDB Target Chain Sequence>
MSIQHFRVALIPFFAAFCLPVFAHPETLVKVKDAEDQLGARVGYIELDLNSGKILESFRPEERFPMMSTFKVLLCGAVLSRVDAGQEQLGRRIHYSQNDLVEYSPVTEKHLTDGMTVRELCSAAITMSDNTAANLLLTTIGGPKELTAFLHNMGDHVTRLDRWEPELNEAIPNDERDTTMPAAMATTLRKLLTGELLTLASRQQLIDWMEADKVAGPLLRSALPAGWFIADKSGAGERGSRGIIAALGPDGKPSRIVVIYTTGSQATMDERNRQIAEIGASLIKHW

> <PDB ID(s) of Target Chain>
1ERM,1ERO,1ERQ,1ESU,1FQG,1JTD,1JVJ,1JWP,1JWV,1LHY,1LI9,1M40,1NXY,1NY0,1NYM,1NYY,1PZO,1PZP,1S0W,1XPB,1YT4,2V1Z,2V20,3CMZ,3DTM,3JYI,3P98,4DXB,4DXC,4GKU,4ZJ2,5AQ8,5HVI,5HW1,5HW5,5NPO,6B2N,7QLP,7QNK,7U6Q,8DE0

> <UniProt (SwissProt) Recommended Name of Target Chain>
Beta-lactamase TEM

> <UniProt (SwissProt) Entry Name of Target Chain>
BLAT_ECOLX

> <UniProt (SwissProt) Primary ID of Target Chain>
P62593

> <UniProt (SwissProt) Secondary ID(s) of Target Chain>
P00810 Q47313

> <UniProt (SwissProt) Alternative ID(s) of Target Chain>


> <UniProt (TrEMBL) Submitted Name of Target Chain>


> <UniProt (TrEMBL) Entry Name of Target Chain>


> <UniProt (TrEMBL) Primary ID of Target Chain>


> <UniProt (TrEMBL) Secondary ID(s) of Target Chain>


> <UniProt (TrEMBL) Alternative ID(s) of Target Chain>


$$$$

  Mrv0541 11231401522D          

 14 14  0  0  0  0            999 V2000
    0.8809   -3.7743    0.0000 B   0  0  0  0  0  0  0  0  0  0  0  0
    5.4271   -4.4869    0.0000 C   0  0  0  0  0  0  0  0  0  0  0  0
    4.6023   -4.4934    0.0000 C   0  0  0  0  0  0  0  0  0  0  0  0
    1.7057   -3.7808    0.0000 C   0  0  0  0  0  0  0  0  0  0  0  0
    4.1866   -3.7808    0.0000 C   0  0  0  0  0  0  0  0  0  0  0  0
    5.8329   -3.7709    0.0000 O   0  0  0  0  0  0  0  0  0  0  0  0
    2.1181   -4.4968    0.0000 C   0  0  0  0  0  0  0  0  0  0  0  0
    2.1181   -3.0682    0.0000 C   0  0  0  0  0  0  0  0  0  0  0  0
    3.3586   -3.7842    0.0000 C   0  0  0  0  0  0  0  0  0  0  0  0
    0.4685   -3.0583    0.0000 O   0  0  0  0  0  0  0  0  0  0  0  0
    0.4586   -4.4869    0.0000 O   0  0  0  0  0  0  0  0  0  0  0  0
    5.8428   -5.1995    0.0000 O   0  0  0  0  0  0  0  0  0  0  0  0
    2.9494   -4.4968    0.0000 C   0  0  0  0  0  0  0  0  0  0  0  0
    2.9429   -3.0715    0.0000 C   0  0  0  0  0  0  0  0  0  0  0  0
  2  3  1  0  0  0  0
  3  5  2  0  0  0  0
  4  1  1  0  0  0  0
  5  9  1  0  0  0  0
  6  2  2  0  0  0  0
  7  4  2  0  0  0  0
  8  4  1  0  0  0  0
  9 14  1  0  0  0  0
 10  1  1  0  0  0  0
 11  1  1  0  0  0  0
 12  2  1  0  0  0  0
 13  7  1  0  0  0  0
 14  8  2  0  0  0  0
 13  9  2  0  0  0  0
M  END
> <From>
www.bindingDB.org

> <BindingDB Reactant_set_id>
50117255

> <Ligand InChI>
InChI=1S/C9H9BO4/c11-9(12)6-3-7-1-4-8(5-2-7)10(13)14/h1-6,13-14H,(H,11,12)/b6-3+

> <Ligand InChI Key>
IEMLKNHGGSYOMP-ZZXKWVIFSA-N

> <BindingDB MonomerID>
50067886

> <BindingDB Ligand Name>
3-(4-boronophenyl)acrylic acid::4-(CARBOXYVIN-2-YL)PHENYLBORONIC ACID::4-phenylpropylester boronic acid::CHEMBL139928

> <Target Name>
Beta-lactamase

> <Target Source Organism According to Curator or DataSource>
Escherichia coli

> <Ki (nM)>
 4200

> <IC50 (nM)>


> <Kd (nM)>


> <EC50 (nM)>


> <kon (M-1-s-1)>


> <koff (s-1)>


> <pH>


> <Temp C>


> <Curation/DataSource>
ChEMBL

> <Article DOI>
10.1021/jm980343w

> <BindingDB Entry DOI>
10.7270/Q22N51FX

> <PMID>
9804697

> <PubChem AID>


> <Patent Number>


> <Authors>
Weston, GS; Blazquez, J; Baquero, F; Shoichet, BK

> <Institution>
Northwestern University Medical School

> <Link to Ligand in BindingDB>
http://www.bindingdb.org/bind/chemsearch/marvin/MolStructure.jsp?monomerid=50067886

> <Link to Ligand-Target Pair in BindingDB>
http://www.bindingdb.org/jsp/dbsearch/PrimarySearch_ki.jsp?energyterm=kJ/mole&tag=pol&polymerid=4401&target=Beta-lactamase&column=ki&startPg=0&Increment=50&submit=Search

> <Link to Ligand-Target Pair in BindingDB>
http://www.bindingdb.org/jsp/dbsearch/PrimarySearch_ki.jsp?energyterm=kJ/mole&tag=r21&monomerid=50067886&enzyme=Beta-lactamase&column=ki&startPg=0&Increment=50&submit=Search

> <Ligand HET ID in PDB>
CVB

> <PDB ID(s) for Ligand-Target Complex>
1KE0

> <PubChem CID of Ligand>
5288001

> <PubChem SID of Ligand>
103962312

> <ChEBI ID of Ligand>


> <ChEMBL ID of Ligand>
CHEMBL139928

> <DrugBank ID of Ligand>
DB02503

> <IUPHAR_GRAC ID of Ligand>


> <KEGG ID of Ligand>


> <ZINC ID of Ligand>


> <Number of Protein Chains in Target (bigger than 1 implies a multichain complex)>
1

> <BindingDB Target Chain Sequence>
MFKTTLCALLITASCSTFAAPQQINDIVHRTITPLIEQQKIPGMAVAVIYQGKPYYFTWGYADIAKKQPVTQQTLFELGSVSKTFTGVLGGDAIARGEIKLSDPTTKYWPELTAKQWNGITLLHLATYTAGGLPLQVPDEVKSSSDLLRFYQNWQPAWAPGTQRLYANSSIGLFGALAVKPSGLSFEQAMQTRVFQPLKLNHTWINVPPAEEKNYAWGYREGKAVHVSPGALDAEAYGVKSTIEDMARWVQSNLKPLDINEKTLQQGIQLAQSRYWQTGDMYQGLGWEMLDWPVNPDSIINGSDNKIALAARPVKAITPPTPAVRASWVHKTGATGGFGSYVAFIPEKELGIVMLANKNYPNPARVDAAWQILNALQ

> <PDB ID(s) of Target Chain>
1C3B,1FCO,1FSW,1FSY,1GA9,1IEL,1IEM,1KDS,1KDW,1KE0,1KE3,1KE4,1KVM,1L2S,1LL5,1LL9,1LLB,1MXO,1MY8,1XGI,1XGJ,2BLS,2HDQ,2HDR,2HDS,2HDU,2I72,2P9V,2PU2,2PU4,2R9W,2R9X,2RCX,3BLS,3BM6,3GQZ,3GR2,3GRJ,3GSG,3GTC,3GV9,3GVB,3O86,3O87,3O88,4E3I,4E3J,4E3K,4E3L,4E3M,4E3N,4E3O,4JXG,4JXS,4JXV,4JXW,4KG2,4KZ3,4KZ4,4KZ5,4KZ6,4KZ7,4KZ8,4KZ9,4KZA,4KZB,4LV0,4LV1,4LV2,4LV3,4OKP,4OLD,4OLG,6DPT,6DPX,6DPY,6DPZ,6T35,6T3D,6T5Y,6T7L,6TBW,6TPM,6WGQ,6YEN,6YEO,6YPD

> <UniProt (SwissProt) Recommended Name of Target Chain>
Beta-lactamase

> <UniProt (SwissProt) Entry Name of Target Chain>
AMPC_ECOLI

> <UniProt (SwissProt) Primary ID of Target Chain>
P00811

> <UniProt (SwissProt) Secondary ID(s) of Target Chain>
Q2M6F2

> <UniProt (SwissProt) Alternative ID(s) of Target Chain>


> <UniProt (TrEMBL) Submitted Name of Target Chain>


> <UniProt (TrEMBL) Entry Name of Target Chain>


> <UniProt (TrEMBL) Primary ID of Target Chain>


> <UniProt (TrEMBL) Secondary ID(s) of Target Chain>


> <UniProt (TrEMBL) Alternative ID(s) of Target Chain>


$$$$

  Mrv0541 11231401522D          

 14 14  0  0  0  0            999 V2000
    0.8809   -3.7743    0.0000 B   0  0  0  0  0  0  0  0  0  0  0  0
    5.4271   -4.4869    0.0000 C   0  0  0  0  0  0  0  0  0  0  0  0
    4.6023   -4.4934    0.0000 C   0  0  0  0  0  0  0  0  0  0  0  0
    1.7057   -3.7808    0.0000 C   0  0  0  0  0  0  0  0  0  0  0  0
    4.1866   -3.7808    0.0000 C   0  0  0  0  0  0  0  0  0  0  0  0
    5.8329   -3.7709    0.0000 O   0  0  0  0  0  0  0  0  0  0  0  0
    2.1181   -4.4968    0.0000 C   0  0  0  0  0  0  0  0  0  0  0  0
    2.1181   -3.0682    0.0000 C   0  0  0  0  0  0  0  0  0  0  0  0
    3.3586   -3.7842    0.0000 C   0  0  0  0  0  0  0  0  0  0  0  0
    0.4685   -3.0583    0.0000 O   0  0  0  0  0  0  0  0  0  0  0  0
    0.4586   -4.4869    0.0000 O   0  0  0  0  0  0  0  0  0  0  0  0
    5.8428   -5.1995    0.0000 O   0  0  0  0  0  0  0  0  0  0  0  0
    2.9494   -4.4968    0.0000 C   0  0  0  0  0  0  0  0  0  0  0  0
    2.9429   -3.0715    0.0000 C   0  0  0  0  0  0  0  0  0  0  0  0
  2  3  1  0  0  0  0
  3  5  2  0  0  0  0
  4  1  1  0  0  0  0
  5  9  1  0  0  0  0
  6  2  2  0  0  0  0
  7  4  2  0  0  0  0
  8  4  1  0  0  0  0
  9 14  1  0  0  0  0
 10  1  1  0  0  0  0
 11  1  1  0  0  0  0
 12  2  1  0  0  0  0
 13  7  1  0  0  0  0
 14  8  2  0  0  0  0
 13  9  2  0  0  0  0
M  END
> <From>
www.bindingDB.org

> <BindingDB Reactant_set_id>
50998440

> <Ligand InChI>
InChI=1S/C9H9BO4/c11-9(12)6-3-7-1-4-8(5-2-7)10(13)14/h1-6,13-14H,(H,11,12)/b6-3+

> <Ligand InChI Key>
IEMLKNHGGSYOMP-ZZXKWVIFSA-N

> <BindingDB MonomerID>
50067886

> <BindingDB Ligand Name>
3-(4-boronophenyl)acrylic acid::4-(CARBOXYVIN-2-YL)PHENYLBORONIC ACID::4-phenylpropylester boronic acid::CHEMBL139928

> <Target Name>
Beta-lactamase

> <Target Source Organism According to Curator or DataSource>
Escherichia coli

> <Ki (nM)>
 4200

> <IC50 (nM)>


> <Kd (nM)>


> <EC50 (nM)>


> <kon (M-1-s-1)>


> <koff (s-1)>


> <pH>


> <Temp C>


> <Curation/DataSource>
ChEMBL

> <Article DOI>
10.1021/jm020002p

> <BindingDB Entry DOI>
10.7270/Q2CN737M

> <PMID>
12109906

> <PubChem AID>


> <Patent Number>


> <Authors>
Powers, RA; Shoichet, BK

> <Institution>
Northwestern University

> <Link to Ligand in BindingDB>
http://www.bindingdb.org/bind/chemsearch/marvin/MolStructure.jsp?monomerid=50067886

> <Link to Ligand-Target Pair in BindingDB>
http://www.bindingdb.org/jsp/dbsearch/PrimarySearch_ki.jsp?energyterm=kJ/mole&tag=pol&polymerid=4401&target=Beta-lactamase&column=ki&startPg=0&Increment=50&submit=Search

> <Link to Ligand-Target Pair in BindingDB>
http://www.bindingdb.org/jsp/dbsearch/PrimarySearch_ki.jsp?energyterm=kJ/mole&tag=r21&monomerid=50067886&enzyme=Beta-lactamase&column=ki&startPg=0&Increment=50&submit=Search

> <Ligand HET ID in PDB>
CVB

> <PDB ID(s) for Ligand-Target Complex>
1KE0

> <PubChem CID of Ligand>
5288001

> <PubChem SID of Ligand>
103962312

> <ChEBI ID of Ligand>


> <ChEMBL ID of Ligand>
CHEMBL139928

> <DrugBank ID of Ligand>
DB02503

> <IUPHAR_GRAC ID of Ligand>


> <KEGG ID of Ligand>


> <ZINC ID of Ligand>


> <Number of Protein Chains in Target (bigger than 1 implies a multichain complex)>
1

> <BindingDB Target Chain Sequence>
MFKTTLCALLITASCSTFAAPQQINDIVHRTITPLIEQQKIPGMAVAVIYQGKPYYFTWGYADIAKKQPVTQQTLFELGSVSKTFTGVLGGDAIARGEIKLSDPTTKYWPELTAKQWNGITLLHLATYTAGGLPLQVPDEVKSSSDLLRFYQNWQPAWAPGTQRLYANSSIGLFGALAVKPSGLSFEQAMQTRVFQPLKLNHTWINVPPAEEKNYAWGYREGKAVHVSPGALDAEAYGVKSTIEDMARWVQSNLKPLDINEKTLQQGIQLAQSRYWQTGDMYQGLGWEMLDWPVNPDSIINGSDNKIALAARPVKAITPPTPAVRASWVHKTGATGGFGSYVAFIPEKELGIVMLANKNYPNPARVDAAWQILNALQ

> <PDB ID(s) of Target Chain>
1C3B,1FCO,1FSW,1FSY,1GA9,1IEL,1IEM,1KDS,1KDW,1KE0,1KE3,1KE4,1KVM,1L2S,1LL5,1LL9,1LLB,1MXO,1MY8,1XGI,1XGJ,2BLS,2HDQ,2HDR,2HDS,2HDU,2I72,2P9V,2PU2,2PU4,2R9W,2R9X,2RCX,3BLS,3BM6,3GQZ,3GR2,3GRJ,3GSG,3GTC,3GV9,3GVB,3O86,3O87,3O88,4E3I,4E3J,4E3K,4E3L,4E3M,4E3N,4E3O,4JXG,4JXS,4JXV,4JXW,4KG2,4KZ3,4KZ4,4KZ5,4KZ6,4KZ7,4KZ8,4KZ9,4KZA,4KZB,4LV0,4LV1,4LV2,4LV3,4OKP,4OLD,4OLG,6DPT,6DPX,6DPY,6DPZ,6T35,6T3D,6T5Y,6T7L,6TBW,6TPM,6WGQ,6YEN,6YEO,6YPD

> <UniProt (SwissProt) Recommended Name of Target Chain>
Beta-lactamase

> <UniProt (SwissProt) Entry Name of Target Chain>
AMPC_ECOLI

> <UniProt (SwissProt) Primary ID of Target Chain>
P00811

> <UniProt (SwissProt) Secondary ID(s) of Target Chain>
Q2M6F2

> <UniProt (SwissProt) Alternative ID(s) of Target Chain>


> <UniProt (TrEMBL) Submitted Name of Target Chain>


> <UniProt (TrEMBL) Entry Name of Target Chain>


> <UniProt (TrEMBL) Primary ID of Target Chain>


> <UniProt (TrEMBL) Secondary ID(s) of Target Chain>


> <UniProt (TrEMBL) Alternative ID(s) of Target Chain>


$$$$

     RDKit          2D

 35 37  0  0  0  0  0  0  0  0999 V2000
    5.7455  -16.7946    0.0000 Na  0  0  0  0  0 15  0  0  0  0  0  0
    3.0211  -14.2967    0.0000 O   0  0  0  0  0  0  0  0  0  0  0  0
    3.4339  -15.0066    0.0000 S   0  0  0  0  0  0  0  0  0  0  0  0
    3.8423  -14.2942    0.0000 O   0  0  0  0  0  0  0  0  0  0  0  0
    4.6762  -14.9034    0.0000 C   0  0  0  0  0  0  0  0  0  0  0  0
    4.0983  -15.4854    0.0000 C   0  0  0  0  0  0  0  0  0  0  0  0
    4.8912  -15.6948    0.0000 C   0  0  0  0  0  0  0  0  0  0  0  0
    3.8465  -16.2654    0.0000 C   0  0  0  0  0  0  0  0  0  0  0  0
    3.0294  -16.2654    0.0000 N   0  0  0  0  0  0  0  0  0  0  0  0
    2.7778  -15.4931    0.0000 C   0  0  0  0  0  0  0  0  0  0  0  0
    2.0054  -15.7447    0.0000 C   0  0  0  0  0  0  0  0  0  0  0  0
    2.2570  -16.5170    0.0000 C   0  0  0  0  0  0  0  0  0  0  0  0
    1.2770  -15.3743    0.0000 C   0  0  0  0  0  0  0  0  0  0  0  0
    1.2336  -14.5582    0.0000 C   0  0  0  0  0  0  0  0  0  0  0  0
    1.9196  -14.1148    0.0000 N   0  0  0  0  0  0  0  0  0  0  0  0
    1.8765  -13.2995    0.0000 C   0  0  0  0  0  0  0  0  0  0  0  0
    1.1476  -12.9283    0.0000 C   0  0  0  0  0  0  0  0  0  0  0  0
    0.4604  -13.3784    0.0000 C   0  0  0  0  0  0  0  0  0  0  0  0
    0.5069  -14.1922    0.0000 C   0  0  0  0  0  0  0  0  0  0  0  0
    1.8866  -17.2454    0.0000 O   0  0  0  0  0  0  0  0  0  0  0  0
    4.3261  -16.9271    0.0000 C   0  0  0  0  0  0  0  0  0  0  0  0
    5.4662  -15.1121    0.0000 O   0  0  0  0  0  0  0  0  0  0  0  0
    6.0420  -14.5322    0.0000 C   0  0  0  0  0  0  0  0  0  0  0  0
    6.8321  -14.7409    0.0000 C   0  0  0  0  0  0  0  0  0  0  0  0
    5.8277  -13.7436    0.0000 O   0  0  0  0  0  0  0  0  0  0  0  0
    7.4079  -14.1610    0.0000 C   0  0  0  0  0  0  0  0  0  0  0  0
    8.1980  -14.3721    0.0000 C   0  0  0  0  0  0  0  0  0  0  0  0
    8.7735  -13.7930    0.0000 C   0  0  0  0  0  0  0  0  0  0  0  0
    8.5593  -13.0034    0.0000 C   0  0  0  0  0  0  0  0  0  0  0  0
    7.7645  -12.7962    0.0000 C   0  0  0  0  0  0  0  0  0  0  0  0
    7.1924  -13.3768    0.0000 C   0  0  0  0  0  0  0  0  0  0  0  0
    9.1343  -12.4227    0.0000 O   0  0  0  0  0  0  0  0  0  0  0  0
    9.5634  -14.0020    0.0000 O   0  0  0  0  0  0  0  0  0  0  0  0
    3.9929  -17.6733    0.0000 O   0  0  0  0  0  0  0  0  0  0  0  0
    5.1389  -16.8426    0.0000 O   0  0  0  0  0  0  0  0  0  0  0  0
  3  2  2  0
  4  3  2  0
  6  5  1  0
  6  7  1  6
  9  8  1  0
  8  6  1  0
  6  3  1  0
  3 10  1  0
 10  9  1  1
 10 11  1  0
 11 12  1  0
 12  9  1  0
 11 13  2  0
 13 14  1  0
 14 15  2  0
 15 16  1  0
 16 17  2  0
 17 18  1  0
 18 19  2  0
 19 14  1  0
 12 20  2  0
  8 21  1  6
  5 22  1  0
 22 23  1  0
 23 24  1  0
 23 25  2  0
 24 26  1  0
 26 27  2  0
 27 28  1  0
 28 29  2  0
 29 30  1  0
 30 31  2  0
 31 26  1  0
 29 32  1  0
 28 33  1  0
 21 34  2  0
 21 35  1  0
M  CHG  2   1   1  35  -1
M  END
> <From>
www.bindingDB.org

> <BindingDB Reactant_set_id>
51183492

> <Ligand InChI>
InChI=1S/C22H20N2O9S.Na/c1-22(11-33-17(27)9-12-5-6-15(25)16(26)8-12)18(21(29)30)24-19(28)14(20(24)34(22,31)32)10-13-4-2-3-7-23-13;/h2-8,10,18,20,25-26H,9,11H2,1H3,(H,29,30);/q;+1/p-1/b14-10-;/t18-,20+,22-;/m0./s1

> <Ligand InChI Key>
OISRDGHGSAOFKW-OIGABSMWSA-M

> <BindingDB MonomerID>
50486725

> <BindingDB Ligand Name>
CHEMBL2236666

> <Target Name>
Beta-lactamase SHV-1

> <Target Source Organism According to Curator or DataSource>


> <Ki (nM)>
 4230

> <IC50 (nM)>


> <Kd (nM)>


> <EC50 (nM)>


> <kon (M-1-s-1)>


> <koff (s-1)>


> <pH>


> <Temp C>


> <Curation/DataSource>
ChEMBL

> <Article DOI>
10.1007/s00044-011-9736-8

> <BindingDB Entry DOI>
10.7270/Q2NC643K

> <PMID>


> <PubChem AID>


> <Patent Number>


> <Authors>
n/a

> <Institution>
n/a

> <Link to Ligand in BindingDB>
http://www.bindingdb.org/bind/chemsearch/marvin/MolStructure.jsp?monomerid=50486725

> <Link to Ligand-Target Pair in BindingDB>
http://www.bindingdb.org/jsp/dbsearch/PrimarySearch_ki.jsp?energyterm=kJ/mole&tag=pol&polymerid=6997&target=Beta-lactamase+SHV-1&column=ki&startPg=0&Increment=50&submit=Search

> <Link to Ligand-Target Pair in BindingDB>
http://www.bindingdb.org/jsp/dbsearch/PrimarySearch_ki.jsp?energyterm=kJ/mole&tag=r21&monomerid=50486725&enzyme=Beta-lactamase+SHV-1&column=ki&startPg=0&Increment=50&submit=Search

> <Ligand HET ID in PDB>


> <PDB ID(s) for Ligand-Target Complex>


> <PubChem CID of Ligand>
23672118

> <PubChem SID of Ligand>
433953990

> <ChEBI ID of Ligand>


> <ChEMBL ID of Ligand>


> <DrugBank ID of Ligand>


> <IUPHAR_GRAC ID of Ligand>


> <KEGG ID of Ligand>


> <ZINC ID of Ligand>


> <Number of Protein Chains in Target (bigger than 1 implies a multichain complex)>
1

> <BindingDB Target Chain Sequence>
MRYIRLCIISLLATLPLAVHASPQPLEQIKLSESQLSGRVGMIEMDLASGRTLTAWRADERFPMMSTFKV
VLCGAVLARVDAGDEQLERKIHYRQQDLVDYSPVSEKHLADGMTVGELCAAAITMSDNSAANLLLATVGG
PAGLTAFLRQIGDNVTRLDRWETELNEALPGDARDTTTPASMAATLRKLLTSQRLSARSQRQLLQWMVDD
RVAGPLIRSVLPAGWFIADKTGAGERGARGIVALLGPNNKAERIVVIYLRDTPASMAERNQQIAGIGAAL
IEHWQR

> <PDB ID(s) of Target Chain>
1ONG,1Q2P,1SHV,1VM1,2G2U,2H5S,2ZD8,3C4O,3C4P,3D4F,3MKE,3MKF,3MXR,3MXS,4FH4,4GD6,4GD8,4GDB,4JPM,4MBF,4R3B,4ZAM,5EE8

> <UniProt (SwissProt) Recommended Name of Target Chain>
Beta-lactamase SHV-1

> <UniProt (SwissProt) Entry Name of Target Chain>
BLA1_KLEPN

> <UniProt (SwissProt) Primary ID of Target Chain>
P0AD64

> <UniProt (SwissProt) Secondary ID(s) of Target Chain>
O07941 P14557 P23982

> <UniProt (SwissProt) Alternative ID(s) of Target Chain>


> <UniProt (TrEMBL) Submitted Name of Target Chain>


> <UniProt (TrEMBL) Entry Name of Target Chain>


> <UniProt (TrEMBL) Primary ID of Target Chain>


> <UniProt (TrEMBL) Secondary ID(s) of Target Chain>


> <UniProt (TrEMBL) Alternative ID(s) of Target Chain>


$$$$

  Mrv0541 11241407532D          

 22 22  0  0  0  0            999 V2000
   -2.7805    0.1291    0.0000 B   0  0  0  0  0  0  0  0  0  0  0  0
   -3.4949   -0.2834    0.0000 O   0  0  0  0  0  0  0  0  0  0  0  0
   -2.7805    0.9541    0.0000 O   0  0  0  0  0  0  0  0  0  0  0  0
   -2.0660   -0.2834    0.0000 C   0  0  0  0  0  0  0  0  0  0  0  0
   -1.3515    0.1291    0.0000 N   0  0  0  0  0  0  0  0  0  0  0  0
   -0.6371   -0.2834    0.0000 C   0  0  0  0  0  0  0  0  0  0  0  0
   -0.6371   -1.1084    0.0000 O   0  0  0  0  0  0  0  0  0  0  0  0
    0.0774    0.1291    0.0000 C   0  0  0  0  0  0  0  0  0  0  0  0
    0.7919   -0.2834    0.0000 N   0  0  0  0  0  0  0  0  0  0  0  0
    0.7919   -1.1084    0.0000 O   0  0  0  0  0  0  0  0  0  0  0  0
    1.5064   -1.5209    0.0000 C   0  0  0  0  0  0  0  0  0  0  0  0
    0.0774    0.9541    0.0000 C   0  0  0  0  0  0  0  0  0  0  0  0
   -0.5900    1.4391    0.0000 C   0  0  0  0  0  0  0  0  0  0  0  0
   -0.3351    2.2237    0.0000 S   0  0  0  0  0  0  0  0  0  0  0  0
    0.4899    2.2237    0.0000 C   0  0  0  0  0  0  0  0  0  0  0  0
    0.9748    2.8911    0.0000 N   0  0  0  0  0  0  0  0  0  0  0  0
    0.7449    1.4391    0.0000 N   0  0  0  0  0  0  0  0  0  0  0  0
    1.0939   -2.2353    0.0000 C   0  0  0  0  0  0  0  0  0  0  0  0
    1.9189   -0.8064    0.0000 C   0  0  0  0  0  0  0  0  0  0  0  0
    2.2208   -1.9334    0.0000 C   0  0  0  0  0  0  0  0  0  0  0  0
    2.9353   -1.5209    0.0000 O   0  0  0  0  0  0  0  0  0  0  0  0
    2.2208   -2.7584    0.0000 O   0  0  0  0  0  0  0  0  0  0  0  0
  1  2  1  0  0  0  0
  1  3  1  0  0  0  0
  1  4  1  0  0  0  0
  4  5  1  0  0  0  0
  6  5  1  0  0  0  0
  6  7  2  0  0  0  0
  6  8  1  0  0  0  0
  8  9  2  0  0  0  0
  8 12  1  0  0  0  0
  9 10  1  0  0  0  0
 11 10  1  0  0  0  0
 11 18  1  0  0  0  0
 11 19  1  0  0  0  0
 11 20  1  0  0  0  0
 12 13  2  0  0  0  0
 12 17  1  0  0  0  0
 13 14  1  0  0  0  0
 15 14  1  0  0  0  0
 15 16  1  0  0  0  0
 15 17  2  0  0  0  0
 20 21  2  0  0  0  0
 20 22  1  0  0  0  0
M  END
> <From>
www.bindingDB.org

> <BindingDB Reactant_set_id>
50845216

> <Ligand InChI>
InChI=1S/C10H15BN4O6S/c1-10(2,8(17)18)21-15-6(5-3-22-9(12)14-5)7(16)13-4-11(19)20/h3,19-20H,4H2,1-2H3,(H2,12,14)(H,13,16)(H,17,18)/b15-6-

> <Ligand InChI Key>
ZECCQELUYUPTSB-UUASQNMZSA-N

> <BindingDB MonomerID>
50370963

> <BindingDB Ligand Name>
CEFTAZIDIME BATSI

> <Target Name>
Beta-lactamase

> <Target Source Organism According to Curator or DataSource>
Escherichia coli

> <Ki (nM)>
 4500

> <IC50 (nM)>


> <Kd (nM)>


> <EC50 (nM)>


> <kon (M-1-s-1)>


> <koff (s-1)>


> <pH>


> <Temp C>


> <Curation/DataSource>
ChEMBL

> <Article DOI>
10.1128/AAC.01293-06

> <BindingDB Entry DOI>
10.7270/Q2WW7JG6

> <PMID>
17220410

> <PubChem AID>


> <Patent Number>


> <Authors>
Thomson, JM; Prati, F; Bethel, CR; Bonomo, RA

> <Institution>
Veterans Affairs Medical Center

> <Link to Ligand in BindingDB>
http://www.bindingdb.org/bind/chemsearch/marvin/MolStructure.jsp?monomerid=50370963

> <Link to Ligand-Target Pair in BindingDB>
http://www.bindingdb.org/jsp/dbsearch/PrimarySearch_ki.jsp?energyterm=kJ/mole&tag=pol&polymerid=50005665&target=Beta-lactamase&column=ki&startPg=0&Increment=50&submit=Search

> <Link to Ligand-Target Pair in BindingDB>
http://www.bindingdb.org/jsp/dbsearch/PrimarySearch_ki.jsp?energyterm=kJ/mole&tag=r21&monomerid=50370963&enzyme=Beta-lactamase&column=ki&startPg=0&Increment=50&submit=Search

> <Ligand HET ID in PDB>
CB4

> <PDB ID(s) for Ligand-Target Complex>
1YLZ,1YLY,5CHM,5GLB,5GLD,1IEM,1M40,3MKE,6AFN,6AFP,4UA9,1JWV

> <PubChem CID of Ligand>
5849540

> <PubChem SID of Ligand>
160850064

> <ChEBI ID of Ligand>


> <ChEMBL ID of Ligand>


> <DrugBank ID of Ligand>
DB04035

> <IUPHAR_GRAC ID of Ligand>


> <KEGG ID of Ligand>


> <ZINC ID of Ligand>


> <Number of Protein Chains in Target (bigger than 1 implies a multichain complex)>
1

> <BindingDB Target Chain Sequence>
MRYIRLCIISLLATLPLAVHASPQPLEQIKQSESQLSGRVGMIEMDLASGRTLTAWRADERFPMMSTFKVVLCGAVLARVDAGDEQLERKIHYRQQDLVDYSPVSEKHLADGMTVGELCAAAITMSDNSAANLLLATVGGPAGLTAFLRQIGDNVTRLDRWETELNEALPGDARDTTTPASMAATLRKLLTSQRLSARSQRQLLQWMVDDRVAGPLIRSVLPAGWFIADKNGASKRGARGIVALLGPNNKAERIVVIYLRDTPANMAERNQQIAGIGAALIEHWQR

> <PDB ID(s) of Target Chain>


> <UniProt (SwissProt) Recommended Name of Target Chain>


> <UniProt (SwissProt) Entry Name of Target Chain>


> <UniProt (SwissProt) Primary ID of Target Chain>


> <UniProt (SwissProt) Secondary ID(s) of Target Chain>


> <UniProt (SwissProt) Alternative ID(s) of Target Chain>


> <UniProt (TrEMBL) Submitted Name of Target Chain>
Beta-lactamase

> <UniProt (TrEMBL) Entry Name of Target Chain>
Q6REX6_ECOLX

> <UniProt (TrEMBL) Primary ID of Target Chain>
Q6REX6

> <UniProt (TrEMBL) Secondary ID(s) of Target Chain>


> <UniProt (TrEMBL) Alternative ID(s) of Target Chain>


$$$$
6a
  Mrv0541 11181423542D          

 12 12  0  0  0  0            999 V2000
   -1.5000    1.8875    0.0000 C   0  0  0  0  0  0  0  0  0  0  0  0
   -2.2145    1.4750    0.0000 C   0  0  0  0  0  0  0  0  0  0  0  0
   -2.2145    0.6500    0.0000 C   0  0  0  0  0  0  0  0  0  0  0  0
   -0.7855    0.6500    0.0000 C   0  0  0  0  0  0  0  0  0  0  0  0
   -0.7855    1.4750    0.0000 C   0  0  0  0  0  0  0  0  0  0  0  0
   -1.5000    0.2375    0.0000 N   0  0  0  0  0  0  0  0  0  0  0  0
   -1.5000    2.7125    0.0000 C   0  0  0  0  0  0  0  0  0  0  0  0
   -2.2145    3.1250    0.0000 O   0  0  0  0  0  0  0  0  0  0  0  0
   -0.7855    3.1250    0.0000 O   0  0  0  0  0  0  0  0  0  0  0  0
   -0.0711    0.2375    0.0000 C   0  0  0  0  0  0  0  0  0  0  0  0
    0.6434    0.6500    0.0000 O   0  0  0  0  0  0  0  0  0  0  0  0
   -0.0711   -0.5875    0.0000 O   0  0  0  0  0  0  0  0  0  0  0  0
  1  2  2  0  0  0  0
  1  5  1  0  0  0  0
  2  3  1  0  0  0  0
  3  6  2  0  0  0  0
  6  4  1  0  0  0  0
  4  5  2  0  0  0  0
  1  7  1  0  0  0  0
  4 10  1  0  0  0  0
  7  9  1  0  0  0  0
  7  8  2  0  0  0  0
 10 11  2  0  0  0  0
 10 12  1  0  0  0  0
M  END
> <From>
www.bindingDB.org

> <BindingDB Reactant_set_id>
51166404

> <Ligand InChI>
InChI=1S/C7H5NO4/c9-6(10)4-1-2-8-5(3-4)7(11)12/h1-3H,(H,9,10)(H,11,12)

> <Ligand InChI Key>
MJIVRKPEXXHNJT-UHFFFAOYSA-N

> <BindingDB MonomerID>
26113

> <BindingDB Ligand Name>
2,4 PDCA::cid_10365::pyridine carboxylate, 6a::pyridine-2,4-dicarboxylic acid

> <Target Name>
Beta-lactamase

> <Target Source Organism According to Curator or DataSource>


> <Ki (nM)>
 4500

> <IC50 (nM)>


> <Kd (nM)>


> <EC50 (nM)>


> <kon (M-1-s-1)>


> <koff (s-1)>


> <pH>


> <Temp C>


> <Curation/DataSource>
ChEMBL

> <Article DOI>
10.1128/aac.00866-06

> <BindingDB Entry DOI>
10.7270/Q23T9M0P

> <PMID>
17307979

> <PubChem AID>


> <Patent Number>


> <Authors>
Horsfall, LE; Garau, G; Li칠nard, BM; Dideberg, O; Schofield, CJ; Fr칟re, JM; Galleni, M

> <Institution>
Universit&#163; de Li&#163;ge

> <Link to Ligand in BindingDB>
http://www.bindingdb.org/bind/chemsearch/marvin/MolStructure.jsp?monomerid=26113

> <Link to Ligand-Target Pair in BindingDB>
http://www.bindingdb.org/jsp/dbsearch/PrimarySearch_ki.jsp?energyterm=kJ/mole&tag=pol&polymerid=50007926&target=Beta-lactamase&column=ki&startPg=0&Increment=50&submit=Search

> <Link to Ligand-Target Pair in BindingDB>
http://www.bindingdb.org/jsp/dbsearch/PrimarySearch_ki.jsp?energyterm=kJ/mole&tag=r21&monomerid=26113&enzyme=Beta-lactamase&column=ki&startPg=0&Increment=50&submit=Search

> <Ligand HET ID in PDB>
PD2

> <PDB ID(s) for Ligand-Target Complex>
4NRQ,4LXL,2GKL,2W0X,5JTC,2VD7,4DIQ,2W2I,4IE0,6I9L,7YXJ,4NHY,4NHK,5A3W,4D6Q,2JIG

> <PubChem CID of Ligand>
10365

> <PubChem SID of Ligand>
56464550

> <ChEBI ID of Ligand>
44737

> <ChEMBL ID of Ligand>


> <DrugBank ID of Ligand>


> <IUPHAR_GRAC ID of Ligand>


> <KEGG ID of Ligand>


> <ZINC ID of Ligand>
ZINC00391915

> <Number of Protein Chains in Target (bigger than 1 implies a multichain complex)>
1

> <BindingDB Target Chain Sequence>
MMKGWMKCGLAGAVVLMASFWGGSVRAAGMSLTQVSGPVYVVEDNYYVQENSMVYFGAKGVTVVGATWTPDTARELHKLIKRVSRQPVLEVINTNYHTDRAGGNAYWKSIGAKVVSTRQTRDLMKSDWAEIVAFTRKGLPEYPDLPLVLPNVVHEGDFTLQEGKLRAFYAGPAHTPDGIFVYFPDQQVLYGNCILKEKLGNLSFADVKAYPRTLERLKAMKLPIKTVVGGHDSPLHGPELIDHYEALIKAAPQS

> <PDB ID(s) of Target Chain>


> <UniProt (SwissProt) Recommended Name of Target Chain>


> <UniProt (SwissProt) Entry Name of Target Chain>


> <UniProt (SwissProt) Primary ID of Target Chain>


> <UniProt (SwissProt) Secondary ID(s) of Target Chain>


> <UniProt (SwissProt) Alternative ID(s) of Target Chain>


> <UniProt (TrEMBL) Submitted Name of Target Chain>
Beta-lactamase

> <UniProt (TrEMBL) Entry Name of Target Chain>
Q44079_AERHY

> <UniProt (TrEMBL) Primary ID of Target Chain>
Q44079

> <UniProt (TrEMBL) Secondary ID(s) of Target Chain>


> <UniProt (TrEMBL) Alternative ID(s) of Target Chain>


$$$$

  Mrv0541 11231414582D          

 17 19  0  0  0  0            999 V2000
    7.2434   -7.0502    0.0000 C   0  0  0  0  0  0  0  0  0  0  0  0
    7.2423   -7.8768    0.0000 C   0  0  0  0  0  0  0  0  0  0  0  0
    7.9561   -8.2895    0.0000 C   0  0  0  0  0  0  0  0  0  0  0  0
    7.9544   -6.6378    0.0000 C   0  0  0  0  0  0  0  0  0  0  0  0
    8.6687   -7.0469    0.0000 C   0  0  0  0  0  0  0  0  0  0  0  0
    8.6688   -7.8724    0.0000 C   0  0  0  0  0  0  0  0  0  0  0  0
    9.4539   -8.1274    0.0000 C   0  0  0  0  0  0  0  0  0  0  0  0
    9.9391   -7.4595    0.0000 O   0  0  0  0  0  0  0  0  0  0  0  0
    9.4538   -6.7918    0.0000 B   0  0  0  0  0  0  0  0  0  0  0  0
    9.7085   -6.0076    0.0000 O   0  0  0  0  0  0  0  0  0  0  0  0
    6.5293   -6.6383    0.0000 N   0  0  0  0  0  0  0  0  0  0  0  0
    5.8155   -7.0508    0.0000 C   0  0  0  0  0  0  0  0  0  0  0  0
    5.1032   -6.6345    0.0000 C   0  0  0  0  0  0  0  0  0  0  0  0
    4.3899   -7.0463    0.0000 C   0  0  0  0  0  0  0  0  0  0  0  0
    4.3898   -7.8716    0.0000 C   0  0  0  0  0  0  0  0  0  0  0  0
    5.1089   -8.2834    0.0000 C   0  0  0  0  0  0  0  0  0  0  0  0
    5.8193   -7.8692    0.0000 C   0  0  0  0  0  0  0  0  0  0  0  0
  7  8  1  0  0  0  0
  8  9  1  0  0  0  0
  9  5  1  0  0  0  0
  4  1  2  0  0  0  0
  9 10  1  0  0  0  0
  5  6  2  0  0  0  0
  1 11  1  0  0  0  0
 11 12  1  0  0  0  0
  2  3  2  0  0  0  0
 12 13  2  0  0  0  0
  3  6  1  0  0  0  0
 13 14  1  0  0  0  0
  1  2  1  0  0  0  0
 14 15  2  0  0  0  0
  5  4  1  0  0  0  0
 15 16  1  0  0  0  0
  6  7  1  0  0  0  0
 16 17  2  0  0  0  0
 17 12  1  0  0  0  0
M  END
> <From>
www.bindingDB.org

> <BindingDB Reactant_set_id>
50629866

> <Ligand InChI>
InChI=1S/C13H12BNO2/c16-14-13-8-12(7-6-10(13)9-17-14)15-11-4-2-1-3-5-11/h1-8,15-16H,9H2

> <Ligand InChI Key>
CSONLIKZXPICDX-UHFFFAOYSA-N

> <BindingDB MonomerID>
50339855

> <BindingDB Ligand Name>
6-(phenylamino)benzo[c][1,2]oxaborol-1(3H)-ol::CHEMBL1761260

> <Target Name>
Beta-lactamase

> <Target Source Organism According to Curator or DataSource>
Enterobacter cloacae

> <Ki (nM)>
 4730

> <IC50 (nM)>


> <Kd (nM)>


> <EC50 (nM)>


> <kon (M-1-s-1)>


> <koff (s-1)>


> <pH>


> <Temp C>


> <Curation/DataSource>
ChEMBL

> <Article DOI>
10.1016/j.bmcl.2011.02.024

> <BindingDB Entry DOI>
10.7270/Q2G44QK5

> <PMID>
21392987

> <PubChem AID>


> <Patent Number>


> <Authors>
Xia, Y; Cao, K; Zhou, Y; Alley, MR; Rock, F; Mohan, M; Meewan, M; Baker, SJ; Lux, S; Ding, CZ; Jia, G; Kully, M; Plattner, JJ

> <Institution>
Anacor Pharmaceuticals Inc

> <Link to Ligand in BindingDB>
http://www.bindingdb.org/bind/chemsearch/marvin/MolStructure.jsp?monomerid=50339855

> <Link to Ligand-Target Pair in BindingDB>
http://www.bindingdb.org/jsp/dbsearch/PrimarySearch_ki.jsp?energyterm=kJ/mole&tag=pol&polymerid=50002394&target=Beta-lactamase&column=ki&startPg=0&Increment=50&submit=Search

> <Link to Ligand-Target Pair in BindingDB>
http://www.bindingdb.org/jsp/dbsearch/PrimarySearch_ki.jsp?energyterm=kJ/mole&tag=r21&monomerid=50339855&enzyme=Beta-lactamase&column=ki&startPg=0&Increment=50&submit=Search

> <Ligand HET ID in PDB>


> <PDB ID(s) for Ligand-Target Complex>


> <PubChem CID of Ligand>
54587116

> <PubChem SID of Ligand>
131342791

> <ChEBI ID of Ligand>


> <ChEMBL ID of Ligand>
CHEMBL1761260

> <DrugBank ID of Ligand>


> <IUPHAR_GRAC ID of Ligand>


> <KEGG ID of Ligand>


> <ZINC ID of Ligand>


> <Number of Protein Chains in Target (bigger than 1 implies a multichain complex)>
1

> <BindingDB Target Chain Sequence>
MMRKSLCCALLLGISCSALATPVSEKQLAEVVANTITPLMKAQSVPGMAVAVIYQGKPHYYTFGKADIAANKPVTPQTLFELGSISKTFTGVLGGDAIARGEISLDDAVTRYWPQLTGKQWQGIRMLDLATYTAGGLPLQVPDEVTDNASLLRFYQNWQPQWKPGTTRLYANASIGLFGALAVKPSGMPYEQAMTTRVLKPLKLDHTWINVPKAEEAHYAWGYRDGKAVRVSPGMLDAQAYGVKTNVQDMANWVMANMAPENVADASLKQGIALAQSRYWRIGSMYQGLGWEMLNWPVEANTVVEGSDSKVALAPLPVAEVNPPAPPVKASWVHKTGSTGGFGSYVAFIPEKQIGIVMLANTSYPNPARVEAAYHILEALQ

> <PDB ID(s) of Target Chain>
1XX2,2Q9M,2Q9N,7TI1

> <UniProt (SwissProt) Recommended Name of Target Chain>
Beta-lactamase

> <UniProt (SwissProt) Entry Name of Target Chain>
AMPC_ENTCL

> <UniProt (SwissProt) Primary ID of Target Chain>
P05364

> <UniProt (SwissProt) Secondary ID(s) of Target Chain>


> <UniProt (SwissProt) Alternative ID(s) of Target Chain>


> <UniProt (TrEMBL) Submitted Name of Target Chain>


> <UniProt (TrEMBL) Entry Name of Target Chain>


> <UniProt (TrEMBL) Primary ID of Target Chain>


> <UniProt (TrEMBL) Secondary ID(s) of Target Chain>


> <UniProt (TrEMBL) Alternative ID(s) of Target Chain>


$$$$

  Mrv0541 11191401012D          

  8  7  0  0  0  0            999 V2000
   -2.0920    2.6813    0.0000 H   0  0  0  0  0  0  0  0  0  0  0  0
   -1.3775    3.0938    0.0000 C   0  0  0  0  0  0  0  0  0  0  0  0
   -0.6630    2.6813    0.0000 N   0  0  0  0  0  0  0  0  0  0  0  0
   -1.3775    3.9188    0.0000 O   0  0  0  0  0  0  0  0  0  0  0  0
    0.0514    3.0938    0.0000 C   0  0  0  0  0  0  0  0  0  0  0  0
    0.7659    2.6813    0.0000 B   0  0  0  0  0  0  0  0  0  0  0  0
    1.4804    3.0938    0.0000 O   0  0  0  0  0  0  0  0  0  0  0  0
    0.7659    1.8563    0.0000 O   0  0  0  0  0  0  0  0  0  0  0  0
  1  2  1  0  0  0  0
  2  3  1  0  0  0  0
  2  4  2  0  0  0  0
  3  5  1  0  0  0  0
  5  6  1  0  0  0  0
  6  7  1  0  0  0  0
  6  8  1  0  0  0  0
M  END
> <From>
www.bindingDB.org

> <BindingDB Reactant_set_id>
74781

> <Ligand InChI>
InChI=1S/C2H6BNO3/c5-2-4-1-3(6)7/h2,6-7H,1H2,(H,4,5)

> <Ligand InChI Key>
UMNZDZYPRHOFGC-UHFFFAOYSA-N

> <BindingDB MonomerID>
39808

> <BindingDB Ligand Name>
Acylglycineboronic acid, 3

> <Target Name>
Beta-lactamase

> <Target Source Organism According to Curator or DataSource>
Escherichia coli

> <Ki (nM)>
 4.8e+3

> <IC50 (nM)>


> <Kd (nM)>


> <EC50 (nM)>


> <kon (M-1-s-1)>


> <koff (s-1)>


> <pH>
7

> <Temp C>


> <Curation/DataSource>
Curated from the literature by BindingDB

> <Article DOI>
10.1016/S1074-5521(00)00052-1

> <BindingDB Entry DOI>
10.7270/Q2CC0Z3R

> <PMID>
11182316

> <PubChem AID>
aid1799471

> <Patent Number>


> <Authors>
Caselli, E; Powers, RA; Blasczcak, LC; Wu, CY; Prati, F; Shoichet, BK

> <Institution>
Northwestern University

> <Link to Ligand in BindingDB>
http://www.bindingdb.org/bind/chemsearch/marvin/MolStructure.jsp?monomerid=39808

> <Link to Ligand-Target Pair in BindingDB>
http://www.bindingdb.org/jsp/dbsearch/PrimarySearch_ki.jsp?energyterm=kJ/mole&tag=pol&polymerid=4401&target=Beta-lactamase&column=ki&startPg=0&Increment=50&submit=Search

> <Link to Ligand-Target Pair in BindingDB>
http://www.bindingdb.org/jsp/dbsearch/PrimarySearch_ki.jsp?energyterm=kJ/mole&tag=r21&monomerid=39808&enzyme=Beta-lactamase&column=ki&startPg=0&Increment=50&submit=Search

> <Ligand HET ID in PDB>


> <PDB ID(s) for Ligand-Target Complex>


> <PubChem CID of Ligand>
9855456

> <PubChem SID of Ligand>
123080116

> <ChEBI ID of Ligand>


> <ChEMBL ID of Ligand>


> <DrugBank ID of Ligand>


> <IUPHAR_GRAC ID of Ligand>


> <KEGG ID of Ligand>
C06049

> <ZINC ID of Ligand>


> <Number of Protein Chains in Target (bigger than 1 implies a multichain complex)>
1

> <BindingDB Target Chain Sequence>
MFKTTLCALLITASCSTFAAPQQINDIVHRTITPLIEQQKIPGMAVAVIYQGKPYYFTWGYADIAKKQPVTQQTLFELGSVSKTFTGVLGGDAIARGEIKLSDPTTKYWPELTAKQWNGITLLHLATYTAGGLPLQVPDEVKSSSDLLRFYQNWQPAWAPGTQRLYANSSIGLFGALAVKPSGLSFEQAMQTRVFQPLKLNHTWINVPPAEEKNYAWGYREGKAVHVSPGALDAEAYGVKSTIEDMARWVQSNLKPLDINEKTLQQGIQLAQSRYWQTGDMYQGLGWEMLDWPVNPDSIINGSDNKIALAARPVKAITPPTPAVRASWVHKTGATGGFGSYVAFIPEKELGIVMLANKNYPNPARVDAAWQILNALQ

> <PDB ID(s) of Target Chain>
1C3B,1FCO,1FSW,1FSY,1GA9,1IEL,1IEM,1KDS,1KDW,1KE0,1KE3,1KE4,1KVM,1L2S,1LL5,1LL9,1LLB,1MXO,1MY8,1XGI,1XGJ,2BLS,2HDQ,2HDR,2HDS,2HDU,2I72,2P9V,2PU2,2PU4,2R9W,2R9X,2RCX,3BLS,3BM6,3GQZ,3GR2,3GRJ,3GSG,3GTC,3GV9,3GVB,3O86,3O87,3O88,4E3I,4E3J,4E3K,4E3L,4E3M,4E3N,4E3O,4JXG,4JXS,4JXV,4JXW,4KG2,4KZ3,4KZ4,4KZ5,4KZ6,4KZ7,4KZ8,4KZ9,4KZA,4KZB,4LV0,4LV1,4LV2,4LV3,4OKP,4OLD,4OLG,6DPT,6DPX,6DPY,6DPZ,6T35,6T3D,6T5Y,6T7L,6TBW,6TPM,6WGQ,6YEN,6YEO,6YPD

> <UniProt (SwissProt) Recommended Name of Target Chain>
Beta-lactamase

> <UniProt (SwissProt) Entry Name of Target Chain>
AMPC_ECOLI

> <UniProt (SwissProt) Primary ID of Target Chain>
P00811

> <UniProt (SwissProt) Secondary ID(s) of Target Chain>
Q2M6F2

> <UniProt (SwissProt) Alternative ID(s) of Target Chain>


> <UniProt (TrEMBL) Submitted Name of Target Chain>


> <UniProt (TrEMBL) Entry Name of Target Chain>


> <UniProt (TrEMBL) Primary ID of Target Chain>


> <UniProt (TrEMBL) Secondary ID(s) of Target Chain>


> <UniProt (TrEMBL) Alternative ID(s) of Target Chain>


$$$$
16752640
  Mrv0541 11251415442D          

 29 32  0  0  1  0            999 V2000
    4.9701    0.1858    0.0000 O   0  0  0  0  0  0  0  0  0  0  0  0
    2.0738    0.1858    0.0000 O   0  0  0  0  0  0  0  0  0  0  0  0
    2.0930    1.2360    0.0000 O   0  0  0  0  0  0  0  0  0  0  0  0
    2.8075    2.4735    0.0000 O   0  0  0  0  0  0  0  0  0  0  0  0
    3.9345   -3.7091    0.0000 O   0  0  0  0  0  0  0  0  0  0  0  0
    5.1720   -2.9947    0.0000 O   0  0  0  0  0  0  0  0  0  0  0  0
    3.5220    0.4109    0.0000 N   0  0  0  0  0  0  0  0  0  0  0  0
    3.5220    1.2360    0.0000 C   0  0  2  0  0  0  0  0  0  0  0  0
    4.2365    1.6485    0.0000 C   0  0  0  0  0  0  0  0  0  0  0  0
    4.2365    2.4735    0.0000 C   0  0  0  0  0  0  0  0  0  0  0  0
    4.1859   -0.0705    0.0000 C   0  0  0  0  0  0  0  0  0  0  0  0
    3.9345   -0.8512    0.0000 C   0  0  0  0  0  0  0  0  0  0  0  0
    2.8580   -0.0705    0.0000 C   0  0  0  0  0  0  0  0  0  0  0  0
    3.1095   -0.8512    0.0000 C   0  0  0  0  0  0  0  0  0  0  0  0
    4.9509    2.8860    0.0000 C   0  0  0  0  0  0  0  0  0  0  0  0
    2.8075    1.6485    0.0000 C   0  0  0  0  0  0  0  0  0  0  0  0
    4.9509    3.7110    0.0000 C   0  0  0  0  0  0  0  0  0  0  0  0
    3.5220    2.8860    0.0000 C   0  0  0  0  0  0  0  0  0  0  0  0
    4.3470   -1.5657    0.0000 C   0  0  0  0  0  0  0  0  0  0  0  0
    2.6970   -1.5657    0.0000 C   0  0  0  0  0  0  0  0  0  0  0  0
    5.6885    2.4449    0.0000 C   0  0  0  0  0  0  0  0  0  0  0  0
    3.9345   -2.2802    0.0000 C   0  0  0  0  0  0  0  0  0  0  0  0
    4.2365    4.1235    0.0000 C   0  0  0  0  0  0  0  0  0  0  0  0
    3.5220    3.7110    0.0000 C   0  0  0  0  0  0  0  0  0  0  0  0
    3.1095   -2.2802    0.0000 C   0  0  0  0  0  0  0  0  0  0  0  0
    5.6885    4.1522    0.0000 C   0  0  0  0  0  0  0  0  0  0  0  0
    6.4360    2.8688    0.0000 C   0  0  0  0  0  0  0  0  0  0  0  0
    6.4360    3.7282    0.0000 C   0  0  0  0  0  0  0  0  0  0  0  0
    4.3470   -2.9947    0.0000 C   0  0  0  0  0  0  0  0  0  0  0  0
  1 11  2  0  0  0  0
  2 13  2  0  0  0  0
  3 16  1  0  0  0  0
  4 16  2  0  0  0  0
  5 29  1  0  0  0  0
  6 29  2  0  0  0  0
  8  7  1  1  0  0  0
  7 11  1  0  0  0  0
  7 13  1  0  0  0  0
  8  9  1  0  0  0  0
  8 16  1  0  0  0  0
  9 10  1  0  0  0  0
 10 15  2  0  0  0  0
 10 18  1  0  0  0  0
 11 12  1  0  0  0  0
 12 14  2  0  0  0  0
 12 19  1  0  0  0  0
 13 14  1  0  0  0  0
 14 20  1  0  0  0  0
 15 17  1  0  0  0  0
 15 21  1  0  0  0  0
 17 23  2  0  0  0  0
 17 26  1  0  0  0  0
 18 24  2  0  0  0  0
 19 22  2  0  0  0  0
 20 25  2  0  0  0  0
 21 27  2  0  0  0  0
 22 25  1  0  0  0  0
 22 29  1  0  0  0  0
 23 24  1  0  0  0  0
 26 28  2  0  0  0  0
 27 28  1  0  0  0  0
M  END
> <From>
www.bindingDB.org

> <BindingDB Reactant_set_id>
78116

> <Ligand InChI>
InChI=1S/C22H15NO6/c24-19-16-9-8-14(21(26)27)10-17(16)20(25)23(19)18(22(28)29)11-13-6-3-5-12-4-1-2-7-15(12)13/h1-10,18H,11H2,(H,26,27)(H,28,29)/t18-/m1/s1

> <Ligand InChI Key>
CZNPWASYMRBJCX-GOSISDBHSA-N

> <BindingDB MonomerID>
41850

> <BindingDB Ligand Name>
2-[(1R)-1-carboxy-2-(1-naphthalenyl)ethyl]-1,3-dioxo-5-isoindolecarboxylic acid::2-[(1R)-1-carboxy-2-(1-naphthyl)ethyl]-1,3-diketo-isoindoline-5-carboxylic acid::2-[(1R)-1-carboxy-2-naphthalen-1-ylethyl]-1,3-dioxoisoindole-5-carboxylic acid::2-[(2R)-3-naphthalen-1-yl-1-oxidanyl-1-oxidanylidene-propan-2-yl]-1,3-bis(oxidanylidene)isoindole-5-carboxylic acid::NCGC00161790-01::cid_16752640

> <Target Name>
Beta-lactamase

> <Target Source Organism According to Curator or DataSource>
Escherichia coli

> <Ki (nM)>
 5000

> <IC50 (nM)>


> <Kd (nM)>


> <EC50 (nM)>


> <kon (M-1-s-1)>


> <koff (s-1)>


> <pH>


> <Temp C>


> <Curation/DataSource>
PubChem

> <Article DOI>


> <BindingDB Entry DOI>
10.7270/Q2PG1Q4H

> <PMID>


> <PubChem AID>
aid1003

> <Patent Number>


> <Authors>
PubChem, PC

> <Institution>
NCGC

> <Link to Ligand in BindingDB>
http://www.bindingdb.org/bind/chemsearch/marvin/MolStructure.jsp?monomerid=41850

> <Link to Ligand-Target Pair in BindingDB>
http://www.bindingdb.org/jsp/dbsearch/PrimarySearch_ki.jsp?energyterm=kJ/mole&tag=pol&polymerid=4401&target=Beta-lactamase&column=ki&startPg=0&Increment=50&submit=Search

> <Link to Ligand-Target Pair in BindingDB>
http://www.bindingdb.org/jsp/dbsearch/PrimarySearch_ki.jsp?energyterm=kJ/mole&tag=r21&monomerid=41850&enzyme=Beta-lactamase&column=ki&startPg=0&Increment=50&submit=Search

> <Ligand HET ID in PDB>
23C

> <PDB ID(s) for Ligand-Target Complex>
2R9W

> <PubChem CID of Ligand>
16752640

> <PubChem SID of Ligand>
252622571

> <ChEBI ID of Ligand>


> <ChEMBL ID of Ligand>


> <DrugBank ID of Ligand>
DB06922

> <IUPHAR_GRAC ID of Ligand>


> <KEGG ID of Ligand>


> <ZINC ID of Ligand>
ZINC13815978

> <Number of Protein Chains in Target (bigger than 1 implies a multichain complex)>
1

> <BindingDB Target Chain Sequence>
MFKTTLCALLITASCSTFAAPQQINDIVHRTITPLIEQQKIPGMAVAVIYQGKPYYFTWGYADIAKKQPVTQQTLFELGSVSKTFTGVLGGDAIARGEIKLSDPTTKYWPELTAKQWNGITLLHLATYTAGGLPLQVPDEVKSSSDLLRFYQNWQPAWAPGTQRLYANSSIGLFGALAVKPSGLSFEQAMQTRVFQPLKLNHTWINVPPAEEKNYAWGYREGKAVHVSPGALDAEAYGVKSTIEDMARWVQSNLKPLDINEKTLQQGIQLAQSRYWQTGDMYQGLGWEMLDWPVNPDSIINGSDNKIALAARPVKAITPPTPAVRASWVHKTGATGGFGSYVAFIPEKELGIVMLANKNYPNPARVDAAWQILNALQ

> <PDB ID(s) of Target Chain>
1C3B,1FCO,1FSW,1FSY,1GA9,1IEL,1IEM,1KDS,1KDW,1KE0,1KE3,1KE4,1KVM,1L2S,1LL5,1LL9,1LLB,1MXO,1MY8,1XGI,1XGJ,2BLS,2HDQ,2HDR,2HDS,2HDU,2I72,2P9V,2PU2,2PU4,2R9W,2R9X,2RCX,3BLS,3BM6,3GQZ,3GR2,3GRJ,3GSG,3GTC,3GV9,3GVB,3O86,3O87,3O88,4E3I,4E3J,4E3K,4E3L,4E3M,4E3N,4E3O,4JXG,4JXS,4JXV,4JXW,4KG2,4KZ3,4KZ4,4KZ5,4KZ6,4KZ7,4KZ8,4KZ9,4KZA,4KZB,4LV0,4LV1,4LV2,4LV3,4OKP,4OLD,4OLG,6DPT,6DPX,6DPY,6DPZ,6T35,6T3D,6T5Y,6T7L,6TBW,6TPM,6WGQ,6YEN,6YEO,6YPD

> <UniProt (SwissProt) Recommended Name of Target Chain>
Beta-lactamase

> <UniProt (SwissProt) Entry Name of Target Chain>
AMPC_ECOLI

> <UniProt (SwissProt) Primary ID of Target Chain>
P00811

> <UniProt (SwissProt) Secondary ID(s) of Target Chain>
Q2M6F2

> <UniProt (SwissProt) Alternative ID(s) of Target Chain>


> <UniProt (TrEMBL) Submitted Name of Target Chain>


> <UniProt (TrEMBL) Entry Name of Target Chain>


> <UniProt (TrEMBL) Primary ID of Target Chain>


> <UniProt (TrEMBL) Secondary ID(s) of Target Chain>


> <UniProt (TrEMBL) Alternative ID(s) of Target Chain>


$$$$

  Mrv0541 11211416132D          

 26 28  0  0  0  0            999 V2000
    1.0974    2.1408    0.0000 S   0  0  0  0  0  0  0  0  0  0  0  0
    1.0974    1.3094    0.0000 C   0  0  0  0  0  0  0  0  0  0  0  0
    0.3783    0.0748    0.0000 C   0  0  0  0  0  0  0  0  0  0  0  0
    0.3783    0.8979    0.0000 C   0  0  0  0  0  0  0  0  0  0  0  0
    1.8083    0.8979    0.0000 C   0  0  0  0  0  0  0  0  0  0  0  0
    1.1016   -0.3367    0.0000 C   0  0  0  0  0  0  0  0  0  0  0  0
    1.8083    0.0748    0.0000 C   0  0  0  0  0  0  0  0  0  0  0  0
   -0.3367   -0.3492    0.0000 N   0  0  0  0  0  0  0  0  0  0  0  0
   -2.4526   -2.4111    0.0000 B   0  0  0  0  0  0  0  0  0  0  0  0
   -1.0558    0.0624    0.0000 N   0  0  0  0  0  0  0  0  0  0  0  0
   -2.4692   -1.5963    0.0000 C   0  0  0  0  0  0  0  0  0  0  0  0
    0.2744    2.1408    0.0000 O   0  0  0  0  0  0  0  0  0  0  0  0
    1.9205    2.1408    0.0000 O   0  0  0  0  0  0  0  0  0  0  0  0
   -1.7584   -1.1764    0.0000 C   0  0  0  0  0  0  0  0  0  0  0  0
    1.0974    2.9556    0.0000 O   0  0  0  0  0  0  0  0  0  0  0  0
   -1.7667   -0.3492    0.0000 C   0  0  0  0  0  0  0  0  0  0  0  0
    1.0974   -1.1598    0.0000 O   0  0  0  0  0  0  0  0  0  0  0  0
   -3.1551   -2.8351    0.0000 O   0  0  0  0  0  0  0  0  0  0  0  0
   -1.7293   -2.8184    0.0000 O   0  0  0  0  0  0  0  0  0  0  0  0
    2.5191    1.3094    0.0000 C   0  0  0  0  0  0  0  0  0  0  0  0
    2.5191   -0.3367    0.0000 C   0  0  0  0  0  0  0  0  0  0  0  0
   -3.2008   -1.1847    0.0000 C   0  0  0  0  0  0  0  0  0  0  0  0
   -3.2008   -0.3658    0.0000 C   0  0  0  0  0  0  0  0  0  0  0  0
   -2.4900    0.0582    0.0000 C   0  0  0  0  0  0  0  0  0  0  0  0
    3.2341    0.8979    0.0000 C   0  0  0  0  0  0  0  0  0  0  0  0
    3.2341    0.0748    0.0000 C   0  0  0  0  0  0  0  0  0  0  0  0
  2  1  1  0  0  0  0
  3  4  2  0  0  0  0
  4  2  1  0  0  0  0
  5  2  2  0  0  0  0
  6  7  2  0  0  0  0
  7  5  1  0  0  0  0
  8  3  1  0  0  0  0
  9 11  1  0  0  0  0
 10  8  2  0  0  0  0
 11 14  2  0  0  0  0
 12  1  2  0  0  0  0
 13  1  2  0  0  0  0
 14 16  1  0  0  0  0
 15  1  1  0  0  0  0
 10 16  1  4  0  0  0
 17  6  1  0  0  0  0
 18  9  1  0  0  0  0
 19  9  1  0  0  0  0
 20  5  1  0  0  0  0
 21  7  1  0  0  0  0
 22 23  2  0  0  0  0
 23 24  1  0  0  0  0
 24 16  2  0  0  0  0
 25 20  2  0  0  0  0
 26 25  1  0  0  0  0
  3  6  1  0  0  0  0
 21 26  2  0  0  0  0
 11 22  1  0  0  0  0
M  END
> <From>
www.bindingDB.org

> <BindingDB Reactant_set_id>
50275063

> <Ligand InChI>
InChI=1S/C16H13BN2O6S/c20-16-13-7-2-1-6-12(13)15(26(23,24)25)9-14(16)19-18-11-5-3-4-10(8-11)17(21)22/h1-9,20-22H,(H,23,24,25)

> <Ligand InChI Key>
OLWCVVQLRLPXLK-UHFFFAOYSA-N

> <BindingDB MonomerID>
50149780

> <BindingDB Ligand Name>
Aza-boronic acid derivative::CHEMBL359901

> <Target Name>
Beta-lactamase

> <Target Source Organism According to Curator or DataSource>
Escherichia coli

> <Ki (nM)>
 5000

> <IC50 (nM)>


> <Kd (nM)>


> <EC50 (nM)>


> <kon (M-1-s-1)>


> <koff (s-1)>


> <pH>


> <Temp C>


> <Curation/DataSource>
ChEMBL

> <Article DOI>
10.1016/j.bmcl.2004.05.054

> <BindingDB Entry DOI>
10.7270/Q2XW4J8P

> <PMID>
15225711

> <PubChem AID>


> <Patent Number>


> <Authors>
Buzzoni, V; Blazquez, J; Ferrari, S; Calo, S; Venturelli, A; Costi, MP

> <Institution>
Universit&#224; degli Studi di Modena e Reggio Emilia

> <Link to Ligand in BindingDB>
http://www.bindingdb.org/bind/chemsearch/marvin/MolStructure.jsp?monomerid=50149780

> <Link to Ligand-Target Pair in BindingDB>
http://www.bindingdb.org/jsp/dbsearch/PrimarySearch_ki.jsp?energyterm=kJ/mole&tag=pol&polymerid=4401&target=Beta-lactamase&column=ki&startPg=0&Increment=50&submit=Search

> <Link to Ligand-Target Pair in BindingDB>
http://www.bindingdb.org/jsp/dbsearch/PrimarySearch_ki.jsp?energyterm=kJ/mole&tag=r21&monomerid=50149780&enzyme=Beta-lactamase&column=ki&startPg=0&Increment=50&submit=Search

> <Ligand HET ID in PDB>


> <PDB ID(s) for Ligand-Target Complex>


> <PubChem CID of Ligand>
44392755

> <PubChem SID of Ligand>
104037855

> <ChEBI ID of Ligand>


> <ChEMBL ID of Ligand>
CHEMBL359901

> <DrugBank ID of Ligand>


> <IUPHAR_GRAC ID of Ligand>


> <KEGG ID of Ligand>


> <ZINC ID of Ligand>


> <Number of Protein Chains in Target (bigger than 1 implies a multichain complex)>
1

> <BindingDB Target Chain Sequence>
MFKTTLCALLITASCSTFAAPQQINDIVHRTITPLIEQQKIPGMAVAVIYQGKPYYFTWGYADIAKKQPVTQQTLFELGSVSKTFTGVLGGDAIARGEIKLSDPTTKYWPELTAKQWNGITLLHLATYTAGGLPLQVPDEVKSSSDLLRFYQNWQPAWAPGTQRLYANSSIGLFGALAVKPSGLSFEQAMQTRVFQPLKLNHTWINVPPAEEKNYAWGYREGKAVHVSPGALDAEAYGVKSTIEDMARWVQSNLKPLDINEKTLQQGIQLAQSRYWQTGDMYQGLGWEMLDWPVNPDSIINGSDNKIALAARPVKAITPPTPAVRASWVHKTGATGGFGSYVAFIPEKELGIVMLANKNYPNPARVDAAWQILNALQ

> <PDB ID(s) of Target Chain>
1C3B,1FCO,1FSW,1FSY,1GA9,1IEL,1IEM,1KDS,1KDW,1KE0,1KE3,1KE4,1KVM,1L2S,1LL5,1LL9,1LLB,1MXO,1MY8,1XGI,1XGJ,2BLS,2HDQ,2HDR,2HDS,2HDU,2I72,2P9V,2PU2,2PU4,2R9W,2R9X,2RCX,3BLS,3BM6,3GQZ,3GR2,3GRJ,3GSG,3GTC,3GV9,3GVB,3O86,3O87,3O88,4E3I,4E3J,4E3K,4E3L,4E3M,4E3N,4E3O,4JXG,4JXS,4JXV,4JXW,4KG2,4KZ3,4KZ4,4KZ5,4KZ6,4KZ7,4KZ8,4KZ9,4KZA,4KZB,4LV0,4LV1,4LV2,4LV3,4OKP,4OLD,4OLG,6DPT,6DPX,6DPY,6DPZ,6T35,6T3D,6T5Y,6T7L,6TBW,6TPM,6WGQ,6YEN,6YEO,6YPD

> <UniProt (SwissProt) Recommended Name of Target Chain>
Beta-lactamase

> <UniProt (SwissProt) Entry Name of Target Chain>
AMPC_ECOLI

> <UniProt (SwissProt) Primary ID of Target Chain>
P00811

> <UniProt (SwissProt) Secondary ID(s) of Target Chain>
Q2M6F2

> <UniProt (SwissProt) Alternative ID(s) of Target Chain>


> <UniProt (TrEMBL) Submitted Name of Target Chain>


> <UniProt (TrEMBL) Entry Name of Target Chain>


> <UniProt (TrEMBL) Primary ID of Target Chain>


> <UniProt (TrEMBL) Secondary ID(s) of Target Chain>


> <UniProt (TrEMBL) Alternative ID(s) of Target Chain>


$$$$

  Mrv0541 11221402032D          

 17 17  0  0  0  0            999 V2000
    1.6080   -4.6701    0.0000 N   0  0  0  0  0  0  0  0  0  0  0  0
    2.3921   -4.4135    0.0000 C   0  0  0  0  0  0  0  0  0  0  0  0
    2.3922   -3.5884    0.0000 C   0  0  0  0  0  0  0  0  0  0  0  0
    1.6047   -3.3340    0.0000 S   0  0  0  0  0  0  0  0  0  0  0  0
    1.1241   -4.0035    0.0000 C   0  0  0  0  0  0  0  0  0  0  0  0
    0.2991   -4.0057    0.0000 N   0  0  0  0  0  0  0  0  0  0  0  0
    3.1155   -4.8103    0.0000 C   0  0  0  0  0  0  0  0  0  0  0  0
    3.1334   -5.6351    0.0000 N   0  0  0  0  0  0  0  0  0  0  0  0
    3.8208   -4.3824    0.0000 C   0  0  0  0  0  0  0  0  0  0  0  0
    4.5441   -4.7792    0.0000 N   0  0  0  0  0  0  0  0  0  0  0  0
    3.8029   -3.5575    0.0000 O   0  0  0  0  0  0  0  0  0  0  0  0
    3.8567   -6.0320    0.0000 O   0  0  0  0  0  0  0  0  0  0  0  0
    3.8746   -6.8568    0.0000 C   0  0  0  0  0  0  0  0  0  0  0  0
    5.2494   -4.3513    0.0000 C   0  0  0  0  0  0  0  0  0  0  0  0
    5.9727   -4.7481    0.0000 B   0  0  0  0  0  0  0  0  0  0  0  0
    6.6780   -4.3202    0.0000 O   0  0  0  0  0  0  0  0  0  0  0  0
    5.9906   -5.5730    0.0000 O   0  0  0  0  0  0  0  0  0  0  0  0
  3  4  1  0  0  0  0
  7  9  1  0  0  0  0
  4  5  1  0  0  0  0
  9 10  1  0  0  0  0
  5  1  2  0  0  0  0
  9 11  2  0  0  0  0
  1  2  1  0  0  0  0
  8 12  1  0  0  0  0
  5  6  1  0  0  0  0
 12 13  1  0  0  0  0
 14 10  1  0  0  0  0
  2  7  1  0  0  0  0
 14 15  1  0  0  0  0
  2  3  2  0  0  0  0
 15 16  1  0  0  0  0
  7  8  2  0  0  0  0
 15 17  1  0  0  0  0
M  END
> <From>
www.bindingDB.org

> <BindingDB Reactant_set_id>
50845212

> <Ligand InChI>
InChI=1S/C7H11BN4O4S/c1-16-12-5(4-2-17-7(9)11-4)6(13)10-3-8(14)15/h2,14-15H,3H2,1H3,(H2,9,11)(H,10,13)/b12-5-

> <Ligand InChI Key>
FMYGJTQJYFMFCR-XGICHPGQSA-N

> <BindingDB MonomerID>
50202234

> <BindingDB Ligand Name>
(Z)-(2-(2-aminothiazol-4-yl)-2-(methoxyimino)acetamido)methylboronic acid::CHEMBL227452::[(2-AMINO-ALPHA-METHOXYIMINO-4-THIAZOLYLACETYL)AMINO]METHYLBORONIC ACID

> <Target Name>
Beta-lactamase

> <Target Source Organism According to Curator or DataSource>
Escherichia coli

> <Ki (nM)>
 5000

> <IC50 (nM)>


> <Kd (nM)>


> <EC50 (nM)>


> <kon (M-1-s-1)>


> <koff (s-1)>


> <pH>


> <Temp C>


> <Curation/DataSource>
ChEMBL

> <Article DOI>
10.1128/AAC.01293-06

> <BindingDB Entry DOI>
10.7270/Q2WW7JG6

> <PMID>
17220410

> <PubChem AID>


> <Patent Number>


> <Authors>
Thomson, JM; Prati, F; Bethel, CR; Bonomo, RA

> <Institution>
Veterans Affairs Medical Center

> <Link to Ligand in BindingDB>
http://www.bindingdb.org/bind/chemsearch/marvin/MolStructure.jsp?monomerid=50202234

> <Link to Ligand-Target Pair in BindingDB>
http://www.bindingdb.org/jsp/dbsearch/PrimarySearch_ki.jsp?energyterm=kJ/mole&tag=pol&polymerid=50005665&target=Beta-lactamase&column=ki&startPg=0&Increment=50&submit=Search

> <Link to Ligand-Target Pair in BindingDB>
http://www.bindingdb.org/jsp/dbsearch/PrimarySearch_ki.jsp?energyterm=kJ/mole&tag=r21&monomerid=50202234&enzyme=Beta-lactamase&column=ki&startPg=0&Increment=50&submit=Search

> <Ligand HET ID in PDB>
CXB

> <PDB ID(s) for Ligand-Target Complex>
1NYM

> <PubChem CID of Ligand>
9600412

> <PubChem SID of Ligand>
104081844

> <ChEBI ID of Ligand>


> <ChEMBL ID of Ligand>
CHEMBL227452

> <DrugBank ID of Ligand>
DB07599

> <IUPHAR_GRAC ID of Ligand>


> <KEGG ID of Ligand>


> <ZINC ID of Ligand>


> <Number of Protein Chains in Target (bigger than 1 implies a multichain complex)>
1

> <BindingDB Target Chain Sequence>
MRYIRLCIISLLATLPLAVHASPQPLEQIKQSESQLSGRVGMIEMDLASGRTLTAWRADERFPMMSTFKVVLCGAVLARVDAGDEQLERKIHYRQQDLVDYSPVSEKHLADGMTVGELCAAAITMSDNSAANLLLATVGGPAGLTAFLRQIGDNVTRLDRWETELNEALPGDARDTTTPASMAATLRKLLTSQRLSARSQRQLLQWMVDDRVAGPLIRSVLPAGWFIADKNGASKRGARGIVALLGPNNKAERIVVIYLRDTPANMAERNQQIAGIGAALIEHWQR

> <PDB ID(s) of Target Chain>


> <UniProt (SwissProt) Recommended Name of Target Chain>


> <UniProt (SwissProt) Entry Name of Target Chain>


> <UniProt (SwissProt) Primary ID of Target Chain>


> <UniProt (SwissProt) Secondary ID(s) of Target Chain>


> <UniProt (SwissProt) Alternative ID(s) of Target Chain>


> <UniProt (TrEMBL) Submitted Name of Target Chain>
Beta-lactamase

> <UniProt (TrEMBL) Entry Name of Target Chain>
Q6REX6_ECOLX

> <UniProt (TrEMBL) Primary ID of Target Chain>
Q6REX6

> <UniProt (TrEMBL) Secondary ID(s) of Target Chain>


> <UniProt (TrEMBL) Alternative ID(s) of Target Chain>


$$$$

  Mrv0541 11241415352D          

 15 16  0  0  0  0            999 V2000
    6.0486   -7.7166    0.0000 C   0  0  0  0  0  0  0  0  0  0  0  0
    6.0474   -8.5440    0.0000 C   0  0  0  0  0  0  0  0  0  0  0  0
    6.7622   -8.9569    0.0000 C   0  0  0  0  0  0  0  0  0  0  0  0
    7.4787   -8.5435    0.0000 C   0  0  0  0  0  0  0  0  0  0  0  0
    7.4758   -7.7130    0.0000 C   0  0  0  0  0  0  0  0  0  0  0  0
    6.7604   -7.3039    0.0000 C   0  0  0  0  0  0  0  0  0  0  0  0
    8.1897   -8.9529    0.0000 C   0  0  0  0  0  0  0  0  0  0  0  0
    8.2773   -9.7733    0.0000 N   0  0  0  0  0  0  0  0  0  0  0  0
    9.0845   -9.9435    0.0000 C   0  0  1  0  0  0  0  0  0  0  0  0
    9.4959   -9.2284    0.0000 C   0  0  0  0  0  0  0  0  0  0  0  0
    8.9429   -8.6163    0.0000 S   0  0  0  0  0  0  0  0  0  0  0  0
    9.4213  -10.6967    0.0000 C   0  0  0  0  0  0  0  0  0  0  0  0
    8.9374  -11.3649    0.0000 O   0  0  0  0  0  0  0  0  0  0  0  0
   10.2419  -10.7816    0.0000 O   0  0  0  0  0  0  0  0  0  0  0  0
    6.7580   -6.4789    0.0000 N   0  0  0  0  0  0  0  0  0  0  0  0
  3  4  1  0  0  0  0
  4  5  2  0  0  0  0
  2  3  2  0  0  0  0
  9  8  1  0  0  0  0
  9 10  1  0  0  0  0
 10 11  1  0  0  0  0
 11  7  1  0  0  0  0
  4  7  1  0  0  0  0
  5  6  1  0  0  0  0
  9 12  1  1  0  0  0
  6  1  2  0  0  0  0
 12 13  1  0  0  0  0
  7  8  2  0  0  0  0
 12 14  2  0  0  0  0
  1  2  1  0  0  0  0
  6 15  1  0  0  0  0
M  END
> <From>
www.bindingDB.org

> <BindingDB Reactant_set_id>
51029287

> <Ligand InChI>
InChI=1S/C10H10N2O2S/c11-7-3-1-2-6(4-7)9-12-8(5-15-9)10(13)14/h1-4,8H,5,11H2,(H,13,14)/t8-/m0/s1

> <Ligand InChI Key>
SRUPSCWKTYPBRA-QMMMGPOBSA-N

> <BindingDB MonomerID>
50421214

> <BindingDB Ligand Name>
CHEMBL2087633

> <Target Name>
Beta-lactamase

> <Target Source Organism According to Curator or DataSource>


> <Ki (nM)>
 5100

> <IC50 (nM)>


> <Kd (nM)>


> <EC50 (nM)>


> <kon (M-1-s-1)>


> <koff (s-1)>


> <pH>


> <Temp C>


> <Curation/DataSource>
ChEMBL

> <Article DOI>
10.1016/j.bmcl.2012.08.012

> <BindingDB Entry DOI>
10.7270/Q2CF9RCZ

> <PMID>
22921080

> <PubChem AID>


> <Patent Number>


> <Authors>
Chen, P; Horton, LB; Mikulski, RL; Deng, L; Sundriyal, S; Palzkill, T; Song, Y

> <Institution>
Baylor College of Medicine

> <Link to Ligand in BindingDB>
http://www.bindingdb.org/bind/chemsearch/marvin/MolStructure.jsp?monomerid=50421214

> <Link to Ligand-Target Pair in BindingDB>
http://www.bindingdb.org/jsp/dbsearch/PrimarySearch_ki.jsp?energyterm=kJ/mole&tag=pol&polymerid=10355&target=Beta-lactamase&column=ki&startPg=0&Increment=50&submit=Search

> <Link to Ligand-Target Pair in BindingDB>
http://www.bindingdb.org/jsp/dbsearch/PrimarySearch_ki.jsp?energyterm=kJ/mole&tag=r21&monomerid=50421214&enzyme=Beta-lactamase&column=ki&startPg=0&Increment=50&submit=Search

> <Ligand HET ID in PDB>


> <PDB ID(s) for Ligand-Target Complex>


> <PubChem CID of Ligand>
70682722

> <PubChem SID of Ligand>
163370238

> <ChEBI ID of Ligand>


> <ChEMBL ID of Ligand>
CHEMBL2087633

> <DrugBank ID of Ligand>


> <IUPHAR_GRAC ID of Ligand>


> <KEGG ID of Ligand>


> <ZINC ID of Ligand>
ZINC84733016

> <Number of Protein Chains in Target (bigger than 1 implies a multichain complex)>
1

> <BindingDB Target Chain Sequence>
MKNTLLKLGVCVSLLGITPFVSTISSVQAERKVEHKVIKNETGTISISQLNKNVWVHTEL
GYFNGEAVPSNGLILNTSKGLVLVDSSWDDKLTKELIEMAEKKFKKSVTDVIITHAHADR
IGGIKTLKERGIKAHSTTLTAELAKKNGYEEPLGDLQAITKLKFGNMKVETFYPGKGHTE
DNIVVWLPQYNMLVGGCLVKSASAKDLGNITDAYVNEWSTSIENVLKRYENINFVVPGHG
EVGDKGLLLHTLDLLK

> <PDB ID(s) of Target Chain>


> <UniProt (SwissProt) Recommended Name of Target Chain>


> <UniProt (SwissProt) Entry Name of Target Chain>


> <UniProt (SwissProt) Primary ID of Target Chain>


> <UniProt (SwissProt) Secondary ID(s) of Target Chain>


> <UniProt (SwissProt) Alternative ID(s) of Target Chain>


> <UniProt (TrEMBL) Submitted Name of Target Chain>
Beta-lactamase

> <UniProt (TrEMBL) Entry Name of Target Chain>
Q93T40_BACAN

> <UniProt (TrEMBL) Primary ID of Target Chain>
Q93T40

> <UniProt (TrEMBL) Secondary ID(s) of Target Chain>
A0A2P0HGU7 A0A6H3AJY0 E9QRT3 E9QRT4 E9QRT5 Q6HVY6 Q6KQ48 Q81YN9

> <UniProt (TrEMBL) Alternative ID(s) of Target Chain>


$$$$

  Mrv0541 11231401522D          

 10 10  0  0  0  0            999 V2000
    0.8809   -3.7743    0.0000 B   0  0  0  0  0  0  0  0  0  0  0  0
    1.7057   -3.7808    0.0000 C   0  0  0  0  0  0  0  0  0  0  0  0
    2.1181   -4.4968    0.0000 C   0  0  0  0  0  0  0  0  0  0  0  0
    2.1181   -3.0682    0.0000 C   0  0  0  0  0  0  0  0  0  0  0  0
    0.4586   -4.4869    0.0000 O   0  0  0  0  0  0  0  0  0  0  0  0
    0.4685   -3.0583    0.0000 O   0  0  0  0  0  0  0  0  0  0  0  0
    2.9429   -3.0715    0.0000 C   0  0  0  0  0  0  0  0  0  0  0  0
    2.9494   -4.4968    0.0000 C   0  0  0  0  0  0  0  0  0  0  0  0
    3.3586   -3.7842    0.0000 C   0  0  0  0  0  0  0  0  0  0  0  0
    4.1866   -3.7808    0.0000 C   0  0  0  0  0  0  0  0  0  0  0  0
  2  1  1  0  0  0  0
  3  2  2  0  0  0  0
  4  2  1  0  0  0  0
  5  1  1  0  0  0  0
  6  1  1  0  0  0  0
  7  4  2  0  0  0  0
  8  3  1  0  0  0  0
  9  7  1  0  0  0  0
 10  9  1  0  0  0  0
  8  9  2  0  0  0  0
M  END
> <From>
www.bindingDB.org

> <BindingDB Reactant_set_id>
50117269

> <Ligand InChI>
InChI=1S/C7H9BO2/c1-6-2-4-7(5-3-6)8(9)10/h2-5,9-10H,1H3

> <Ligand InChI Key>
BIWQNIMLAISTBV-UHFFFAOYSA-N

> <BindingDB MonomerID>
50067895

> <BindingDB Ligand Name>
CHEMBL140780::Tolyl boronic acid::p-tolylboronic acid

> <Target Name>
Beta-lactamase

> <Target Source Organism According to Curator or DataSource>
Escherichia coli

> <Ki (nM)>
 5400

> <IC50 (nM)>


> <Kd (nM)>


> <EC50 (nM)>


> <kon (M-1-s-1)>


> <koff (s-1)>


> <pH>


> <Temp C>


> <Curation/DataSource>
ChEMBL

> <Article DOI>
10.1021/jm980343w

> <BindingDB Entry DOI>
10.7270/Q22N51FX

> <PMID>
9804697

> <PubChem AID>


> <Patent Number>


> <Authors>
Weston, GS; Blazquez, J; Baquero, F; Shoichet, BK

> <Institution>
Northwestern University Medical School

> <Link to Ligand in BindingDB>
http://www.bindingdb.org/bind/chemsearch/marvin/MolStructure.jsp?monomerid=50067895

> <Link to Ligand-Target Pair in BindingDB>
http://www.bindingdb.org/jsp/dbsearch/PrimarySearch_ki.jsp?energyterm=kJ/mole&tag=pol&polymerid=4401&target=Beta-lactamase&column=ki&startPg=0&Increment=50&submit=Search

> <Link to Ligand-Target Pair in BindingDB>
http://www.bindingdb.org/jsp/dbsearch/PrimarySearch_ki.jsp?energyterm=kJ/mole&tag=r21&monomerid=50067895&enzyme=Beta-lactamase&column=ki&startPg=0&Increment=50&submit=Search

> <Ligand HET ID in PDB>


> <PDB ID(s) for Ligand-Target Complex>


> <PubChem CID of Ligand>
79799

> <PubChem SID of Ligand>
103962321

> <ChEBI ID of Ligand>


> <ChEMBL ID of Ligand>
CHEMBL140780

> <DrugBank ID of Ligand>


> <IUPHAR_GRAC ID of Ligand>


> <KEGG ID of Ligand>


> <ZINC ID of Ligand>


> <Number of Protein Chains in Target (bigger than 1 implies a multichain complex)>
1

> <BindingDB Target Chain Sequence>
MFKTTLCALLITASCSTFAAPQQINDIVHRTITPLIEQQKIPGMAVAVIYQGKPYYFTWGYADIAKKQPVTQQTLFELGSVSKTFTGVLGGDAIARGEIKLSDPTTKYWPELTAKQWNGITLLHLATYTAGGLPLQVPDEVKSSSDLLRFYQNWQPAWAPGTQRLYANSSIGLFGALAVKPSGLSFEQAMQTRVFQPLKLNHTWINVPPAEEKNYAWGYREGKAVHVSPGALDAEAYGVKSTIEDMARWVQSNLKPLDINEKTLQQGIQLAQSRYWQTGDMYQGLGWEMLDWPVNPDSIINGSDNKIALAARPVKAITPPTPAVRASWVHKTGATGGFGSYVAFIPEKELGIVMLANKNYPNPARVDAAWQILNALQ

> <PDB ID(s) of Target Chain>
1C3B,1FCO,1FSW,1FSY,1GA9,1IEL,1IEM,1KDS,1KDW,1KE0,1KE3,1KE4,1KVM,1L2S,1LL5,1LL9,1LLB,1MXO,1MY8,1XGI,1XGJ,2BLS,2HDQ,2HDR,2HDS,2HDU,2I72,2P9V,2PU2,2PU4,2R9W,2R9X,2RCX,3BLS,3BM6,3GQZ,3GR2,3GRJ,3GSG,3GTC,3GV9,3GVB,3O86,3O87,3O88,4E3I,4E3J,4E3K,4E3L,4E3M,4E3N,4E3O,4JXG,4JXS,4JXV,4JXW,4KG2,4KZ3,4KZ4,4KZ5,4KZ6,4KZ7,4KZ8,4KZ9,4KZA,4KZB,4LV0,4LV1,4LV2,4LV3,4OKP,4OLD,4OLG,6DPT,6DPX,6DPY,6DPZ,6T35,6T3D,6T5Y,6T7L,6TBW,6TPM,6WGQ,6YEN,6YEO,6YPD

> <UniProt (SwissProt) Recommended Name of Target Chain>
Beta-lactamase

> <UniProt (SwissProt) Entry Name of Target Chain>
AMPC_ECOLI

> <UniProt (SwissProt) Primary ID of Target Chain>
P00811

> <UniProt (SwissProt) Secondary ID(s) of Target Chain>
Q2M6F2

> <UniProt (SwissProt) Alternative ID(s) of Target Chain>


> <UniProt (TrEMBL) Submitted Name of Target Chain>


> <UniProt (TrEMBL) Entry Name of Target Chain>


> <UniProt (TrEMBL) Primary ID of Target Chain>


> <UniProt (TrEMBL) Secondary ID(s) of Target Chain>


> <UniProt (TrEMBL) Alternative ID(s) of Target Chain>


$$$$

  Mrv0541 11191401012D          

 16 16  0  0  0  0            999 V2000
   -0.7396    1.4778    0.0000 C   0  0  0  0  0  0  0  0  0  0  0  0
   -1.5646    1.4778    0.0000 C   0  0  0  0  0  0  0  0  0  0  0  0
   -1.9771    2.1922    0.0000 C   0  0  0  0  0  0  0  0  0  0  0  0
   -1.5646    2.9067    0.0000 C   0  0  0  0  0  0  0  0  0  0  0  0
   -0.7396    2.9067    0.0000 C   0  0  0  0  0  0  0  0  0  0  0  0
   -0.3271    2.1922    0.0000 C   0  0  0  0  0  0  0  0  0  0  0  0
   -1.9771    3.6212    0.0000 B   0  0  0  0  0  0  0  0  0  0  0  0
   -2.8021    3.6212    0.0000 O   0  0  0  0  0  0  0  0  0  0  0  0
   -1.5646    4.3356    0.0000 O   0  0  0  0  0  0  0  0  0  0  0  0
    0.4979    2.1922    0.0000 N   0  0  0  0  0  0  0  0  0  0  0  0
    0.9104    1.4778    0.0000 S   0  0  0  0  0  0  0  0  0  0  0  0
    0.4979    0.7633    0.0000 O   0  0  0  0  0  0  0  0  0  0  0  0
    1.7354    1.4778    0.0000 N   0  0  0  0  0  0  0  0  0  0  0  0
    1.3229    2.1923    0.0000 O   0  0  0  0  0  0  0  0  0  0  0  0
    2.1479    0.7633    0.0000 C   0  0  0  0  0  0  0  0  0  0  0  0
    2.1479    2.1923    0.0000 C   0  0  0  0  0  0  0  0  0  0  0  0
  1  2  2  0  0  0  0
  2  3  1  0  0  0  0
  3  4  2  0  0  0  0
  4  5  1  0  0  0  0
  5  6  2  0  0  0  0
  1  6  1  0  0  0  0
  4  7  1  0  0  0  0
  7  8  1  0  0  0  0
  7  9  1  0  0  0  0
  6 10  1  0  0  0  0
 10 11  1  0  0  0  0
 11 12  2  0  0  0  0
 11 13  1  0  0  0  0
 11 14  2  0  0  0  0
 13 15  1  0  0  0  0
 13 16  1  0  0  0  0
M  END
> <From>
www.bindingDB.org

> <BindingDB Reactant_set_id>
74818

> <Ligand InChI>
InChI=1S/C8H13BN2O4S/c1-11(2)16(14,15)10-8-5-3-4-7(6-8)9(12)13/h3-6,10,12-13H,1-2H3

> <Ligand InChI Key>
UHPQMFBFPJCLDX-UHFFFAOYSA-N

> <BindingDB MonomerID>
39832

> <BindingDB Ligand Name>
Amide and sulfonamide derivatives, 16

> <Target Name>
Beta-lactamase

> <Target Source Organism According to Curator or DataSource>
Escherichia coli

> <Ki (nM)>
 5.5e+3

> <IC50 (nM)>


> <Kd (nM)>


> <EC50 (nM)>


> <kon (M-1-s-1)>


> <koff (s-1)>


> <pH>
7

> <Temp C>


> <Curation/DataSource>
Curated from the literature by BindingDB

> <Article DOI>
10.1016/S1074-5521(01)00034-5

> <BindingDB Entry DOI>
10.7270/Q27M06BZ

> <PMID>
11410378

> <PubChem AID>
aid1799472

> <Patent Number>


> <Authors>
Tondi, D; Powers, RA; Caselli, E; Negri, MC; Bl&aacute;zquez, J; Costi, MP; Shoichet, BK

> <Institution>
Northwestern University

> <Link to Ligand in BindingDB>
http://www.bindingdb.org/bind/chemsearch/marvin/MolStructure.jsp?monomerid=39832

> <Link to Ligand-Target Pair in BindingDB>
http://www.bindingdb.org/jsp/dbsearch/PrimarySearch_ki.jsp?energyterm=kJ/mole&tag=pol&polymerid=4401&target=Beta-lactamase&column=ki&startPg=0&Increment=50&submit=Search

> <Link to Ligand-Target Pair in BindingDB>
http://www.bindingdb.org/jsp/dbsearch/PrimarySearch_ki.jsp?energyterm=kJ/mole&tag=r21&monomerid=39832&enzyme=Beta-lactamase&column=ki&startPg=0&Increment=50&submit=Search

> <Ligand HET ID in PDB>


> <PDB ID(s) for Ligand-Target Complex>


> <PubChem CID of Ligand>
44119857

> <PubChem SID of Ligand>
123080140

> <ChEBI ID of Ligand>


> <ChEMBL ID of Ligand>


> <DrugBank ID of Ligand>


> <IUPHAR_GRAC ID of Ligand>


> <KEGG ID of Ligand>


> <ZINC ID of Ligand>


> <Number of Protein Chains in Target (bigger than 1 implies a multichain complex)>
1

> <BindingDB Target Chain Sequence>
MFKTTLCALLITASCSTFAAPQQINDIVHRTITPLIEQQKIPGMAVAVIYQGKPYYFTWGYADIAKKQPVTQQTLFELGSVSKTFTGVLGGDAIARGEIKLSDPTTKYWPELTAKQWNGITLLHLATYTAGGLPLQVPDEVKSSSDLLRFYQNWQPAWAPGTQRLYANSSIGLFGALAVKPSGLSFEQAMQTRVFQPLKLNHTWINVPPAEEKNYAWGYREGKAVHVSPGALDAEAYGVKSTIEDMARWVQSNLKPLDINEKTLQQGIQLAQSRYWQTGDMYQGLGWEMLDWPVNPDSIINGSDNKIALAARPVKAITPPTPAVRASWVHKTGATGGFGSYVAFIPEKELGIVMLANKNYPNPARVDAAWQILNALQ

> <PDB ID(s) of Target Chain>
1C3B,1FCO,1FSW,1FSY,1GA9,1IEL,1IEM,1KDS,1KDW,1KE0,1KE3,1KE4,1KVM,1L2S,1LL5,1LL9,1LLB,1MXO,1MY8,1XGI,1XGJ,2BLS,2HDQ,2HDR,2HDS,2HDU,2I72,2P9V,2PU2,2PU4,2R9W,2R9X,2RCX,3BLS,3BM6,3GQZ,3GR2,3GRJ,3GSG,3GTC,3GV9,3GVB,3O86,3O87,3O88,4E3I,4E3J,4E3K,4E3L,4E3M,4E3N,4E3O,4JXG,4JXS,4JXV,4JXW,4KG2,4KZ3,4KZ4,4KZ5,4KZ6,4KZ7,4KZ8,4KZ9,4KZA,4KZB,4LV0,4LV1,4LV2,4LV3,4OKP,4OLD,4OLG,6DPT,6DPX,6DPY,6DPZ,6T35,6T3D,6T5Y,6T7L,6TBW,6TPM,6WGQ,6YEN,6YEO,6YPD

> <UniProt (SwissProt) Recommended Name of Target Chain>
Beta-lactamase

> <UniProt (SwissProt) Entry Name of Target Chain>
AMPC_ECOLI

> <UniProt (SwissProt) Primary ID of Target Chain>
P00811

> <UniProt (SwissProt) Secondary ID(s) of Target Chain>
Q2M6F2

> <UniProt (SwissProt) Alternative ID(s) of Target Chain>


> <UniProt (TrEMBL) Submitted Name of Target Chain>


> <UniProt (TrEMBL) Entry Name of Target Chain>


> <UniProt (TrEMBL) Primary ID of Target Chain>


> <UniProt (TrEMBL) Secondary ID(s) of Target Chain>


> <UniProt (TrEMBL) Alternative ID(s) of Target Chain>


$$$$

  Mrv0541 11231414582D          

 22 24  0  0  0  0            999 V2000
   16.1602  -18.4093    0.0000 C   0  0  0  0  0  0  0  0  0  0  0  0
   16.1592  -19.2359    0.0000 C   0  0  0  0  0  0  0  0  0  0  0  0
   16.8730  -19.6484    0.0000 C   0  0  0  0  0  0  0  0  0  0  0  0
   16.8713  -17.9968    0.0000 C   0  0  0  0  0  0  0  0  0  0  0  0
   17.5857  -18.4058    0.0000 C   0  0  0  0  0  0  0  0  0  0  0  0
   17.5857  -19.2313    0.0000 C   0  0  0  0  0  0  0  0  0  0  0  0
   18.3708  -19.4864    0.0000 C   0  0  0  0  0  0  0  0  0  0  0  0
   18.8561  -18.8184    0.0000 O   0  0  0  0  0  0  0  0  0  0  0  0
   18.3707  -18.1508    0.0000 B   0  0  0  0  0  0  0  0  0  0  0  0
   18.6253  -17.3667    0.0000 O   0  0  0  0  0  0  0  0  0  0  0  0
   15.4462  -17.9973    0.0000 O   0  0  0  0  0  0  0  0  0  0  0  0
   14.7324  -18.4098    0.0000 C   0  0  0  0  0  0  0  0  0  0  0  0
   14.0201  -17.9935    0.0000 C   0  0  0  0  0  0  0  0  0  0  0  0
   13.3068  -18.4053    0.0000 C   0  0  0  0  0  0  0  0  0  0  0  0
   13.3067  -19.2306    0.0000 C   0  0  0  0  0  0  0  0  0  0  0  0
   14.0258  -19.6424    0.0000 C   0  0  0  0  0  0  0  0  0  0  0  0
   14.7361  -19.2282    0.0000 C   0  0  0  0  0  0  0  0  0  0  0  0
   12.5917  -19.6447    0.0000 C   0  0  0  0  0  0  0  0  0  0  0  0
   11.8770  -19.2337    0.0000 O   0  0  0  0  0  0  0  0  0  0  0  0
   12.5931  -20.4691    0.0000 O   0  0  0  0  0  0  0  0  0  0  0  0
   11.8756  -18.4093    0.0000 C   0  0  0  0  0  0  0  0  0  0  0  0
   12.5889  -17.9958    0.0000 C   0  0  0  0  0  0  0  0  0  0  0  0
  5  6  1  0  0  0  0
  1 11  1  0  0  0  0
 11 12  1  0  0  0  0
  2  3  1  0  0  0  0
 12 13  2  0  0  0  0
  3  6  2  0  0  0  0
 13 14  1  0  0  0  0
  1  2  2  0  0  0  0
 14 15  2  0  0  0  0
  5  4  2  0  0  0  0
 15 16  1  0  0  0  0
  6  7  1  0  0  0  0
 16 17  2  0  0  0  0
 17 12  1  0  0  0  0
  7  8  1  0  0  0  0
  8  9  1  0  0  0  0
  9  5  1  0  0  0  0
 18 19  1  0  0  0  0
 18 20  2  0  0  0  0
 15 18  1  0  0  0  0
  4  1  1  0  0  0  0
 19 21  1  0  0  0  0
  9 10  1  0  0  0  0
 21 22  1  0  0  0  0
M  END
> <From>
www.bindingDB.org

> <BindingDB Reactant_set_id>
50629878

> <Ligand InChI>
InChI=1S/C16H15BO5/c1-2-20-16(18)11-3-6-13(7-4-11)22-14-8-5-12-10-21-17(19)15(12)9-14/h3-9,19H,2,10H2,1H3

> <Ligand InChI Key>
JABURMIKTRZXPS-UHFFFAOYSA-N

> <BindingDB MonomerID>
50339867

> <BindingDB Ligand Name>
CHEMBL1761273::ethyl 4-(1-hydroxy-1,3-dihydrobenzo[c][1,2]oxaborol-6-yloxy)benzoate

> <Target Name>
Beta-lactamase

> <Target Source Organism According to Curator or DataSource>
Enterobacter cloacae

> <Ki (nM)>
 5550

> <IC50 (nM)>


> <Kd (nM)>


> <EC50 (nM)>


> <kon (M-1-s-1)>


> <koff (s-1)>


> <pH>


> <Temp C>


> <Curation/DataSource>
ChEMBL

> <Article DOI>
10.1016/j.bmcl.2011.02.024

> <BindingDB Entry DOI>
10.7270/Q2G44QK5

> <PMID>
21392987

> <PubChem AID>


> <Patent Number>


> <Authors>
Xia, Y; Cao, K; Zhou, Y; Alley, MR; Rock, F; Mohan, M; Meewan, M; Baker, SJ; Lux, S; Ding, CZ; Jia, G; Kully, M; Plattner, JJ

> <Institution>
Anacor Pharmaceuticals Inc

> <Link to Ligand in BindingDB>
http://www.bindingdb.org/bind/chemsearch/marvin/MolStructure.jsp?monomerid=50339867

> <Link to Ligand-Target Pair in BindingDB>
http://www.bindingdb.org/jsp/dbsearch/PrimarySearch_ki.jsp?energyterm=kJ/mole&tag=pol&polymerid=50002394&target=Beta-lactamase&column=ki&startPg=0&Increment=50&submit=Search

> <Link to Ligand-Target Pair in BindingDB>
http://www.bindingdb.org/jsp/dbsearch/PrimarySearch_ki.jsp?energyterm=kJ/mole&tag=r21&monomerid=50339867&enzyme=Beta-lactamase&column=ki&startPg=0&Increment=50&submit=Search

> <Ligand HET ID in PDB>


> <PDB ID(s) for Ligand-Target Complex>


> <PubChem CID of Ligand>
54587118

> <PubChem SID of Ligand>
131342803

> <ChEBI ID of Ligand>


> <ChEMBL ID of Ligand>
CHEMBL1761273

> <DrugBank ID of Ligand>


> <IUPHAR_GRAC ID of Ligand>


> <KEGG ID of Ligand>


> <ZINC ID of Ligand>


> <Number of Protein Chains in Target (bigger than 1 implies a multichain complex)>
1

> <BindingDB Target Chain Sequence>
MMRKSLCCALLLGISCSALATPVSEKQLAEVVANTITPLMKAQSVPGMAVAVIYQGKPHYYTFGKADIAANKPVTPQTLFELGSISKTFTGVLGGDAIARGEISLDDAVTRYWPQLTGKQWQGIRMLDLATYTAGGLPLQVPDEVTDNASLLRFYQNWQPQWKPGTTRLYANASIGLFGALAVKPSGMPYEQAMTTRVLKPLKLDHTWINVPKAEEAHYAWGYRDGKAVRVSPGMLDAQAYGVKTNVQDMANWVMANMAPENVADASLKQGIALAQSRYWRIGSMYQGLGWEMLNWPVEANTVVEGSDSKVALAPLPVAEVNPPAPPVKASWVHKTGSTGGFGSYVAFIPEKQIGIVMLANTSYPNPARVEAAYHILEALQ

> <PDB ID(s) of Target Chain>
1XX2,2Q9M,2Q9N,7TI1

> <UniProt (SwissProt) Recommended Name of Target Chain>
Beta-lactamase

> <UniProt (SwissProt) Entry Name of Target Chain>
AMPC_ENTCL

> <UniProt (SwissProt) Primary ID of Target Chain>
P05364

> <UniProt (SwissProt) Secondary ID(s) of Target Chain>


> <UniProt (SwissProt) Alternative ID(s) of Target Chain>


> <UniProt (TrEMBL) Submitted Name of Target Chain>


> <UniProt (TrEMBL) Entry Name of Target Chain>


> <UniProt (TrEMBL) Primary ID of Target Chain>


> <UniProt (TrEMBL) Secondary ID(s) of Target Chain>


> <UniProt (TrEMBL) Alternative ID(s) of Target Chain>


$$$$
 
  Mrv0541 04211516022D          

  9  9  0  0  0  0            999 V2000
    7.5135   -3.5285    0.0000 C   0  0  0  0  0  0  0  0  0  0  0  0
    7.5184   -4.3538    0.0000 C   0  0  0  0  0  0  0  0  0  0  0  0
    8.2316   -4.7600    0.0000 N   0  0  0  0  0  0  0  0  0  0  0  0
    8.9445   -4.3454    0.0000 C   0  0  0  0  0  0  0  0  0  0  0  0
    8.9396   -3.5201    0.0000 C   0  0  0  0  0  0  0  0  0  0  0  0
    8.2219   -3.1094    0.0000 C   0  0  0  0  0  0  0  0  0  0  0  0
    9.6593   -4.7538    0.0000 C   0  0  0  0  0  0  0  0  0  0  0  0
    9.6630   -5.5772    0.0000 O   0  0  0  0  0  0  0  0  0  0  0  0
   10.3705   -4.3390    0.0000 O   0  0  0  0  0  0  0  0  0  0  0  0
  2  3  4  0  0  0  0
  3  4  4  0  0  0  0
  4  5  4  0  0  0  0
  5  6  4  0  0  0  0
  4  7  1  0  0  0  0
  1  2  4  0  0  0  0
  7  8  2  0  0  0  0
  1  6  4  0  0  0  0
  7  9  1  0  0  0  0
M  END
> <From>
www.bindingDB.org

> <BindingDB Reactant_set_id>
51166410

> <Ligand InChI>
InChI=1S/C6H5NO2/c8-6(9)5-3-1-2-4-7-5/h1-4H,(H,8,9)

> <Ligand InChI Key>
SIOXPEMLGUPBBT-UHFFFAOYSA-N

> <BindingDB MonomerID>
50000407

> <BindingDB Ligand Name>
2-carboxypyridine::CHEMBL72628::alpha-picolinic acid::alpha-pyridinecarboxylic acid::o-pyridinecarboxylic acid::picolinic acid::pyridine-2-carboxylic acid

> <Target Name>
Beta-lactamase

> <Target Source Organism According to Curator or DataSource>


> <Ki (nM)>
 5700

> <IC50 (nM)>


> <Kd (nM)>


> <EC50 (nM)>


> <kon (M-1-s-1)>


> <koff (s-1)>


> <pH>


> <Temp C>


> <Curation/DataSource>
ChEMBL

> <Article DOI>
10.1128/aac.00866-06

> <BindingDB Entry DOI>
10.7270/Q23T9M0P

> <PMID>
17307979

> <PubChem AID>


> <Patent Number>


> <Authors>
Horsfall, LE; Garau, G; Li칠nard, BM; Dideberg, O; Schofield, CJ; Fr칟re, JM; Galleni, M

> <Institution>
Universit&#163; de Li&#163;ge

> <Link to Ligand in BindingDB>
http://www.bindingdb.org/bind/chemsearch/marvin/MolStructure.jsp?monomerid=50000407

> <Link to Ligand-Target Pair in BindingDB>
http://www.bindingdb.org/jsp/dbsearch/PrimarySearch_ki.jsp?energyterm=kJ/mole&tag=pol&polymerid=50007926&target=Beta-lactamase&column=ki&startPg=0&Increment=50&submit=Search

> <Link to Ligand-Target Pair in BindingDB>
http://www.bindingdb.org/jsp/dbsearch/PrimarySearch_ki.jsp?energyterm=kJ/mole&tag=r21&monomerid=50000407&enzyme=Beta-lactamase&column=ki&startPg=0&Increment=50&submit=Search

> <Ligand HET ID in PDB>
6PC

> <PDB ID(s) for Ligand-Target Complex>
4M1E,2OLO,2OLN,4YIC,6RTT,5GJA,5WOL,4HSJ,3HZL,7Q0X,4YZZ,6O4D

> <PubChem CID of Ligand>
1018

> <PubChem SID of Ligand>
103914989

> <ChEBI ID of Ligand>
28747

> <ChEMBL ID of Ligand>
CHEMBL72628

> <DrugBank ID of Ligand>


> <IUPHAR_GRAC ID of Ligand>


> <KEGG ID of Ligand>
C10164

> <ZINC ID of Ligand>
ZINC00039905

> <Number of Protein Chains in Target (bigger than 1 implies a multichain complex)>
1

> <BindingDB Target Chain Sequence>
MMKGWMKCGLAGAVVLMASFWGGSVRAAGMSLTQVSGPVYVVEDNYYVQENSMVYFGAKGVTVVGATWTPDTARELHKLIKRVSRQPVLEVINTNYHTDRAGGNAYWKSIGAKVVSTRQTRDLMKSDWAEIVAFTRKGLPEYPDLPLVLPNVVHEGDFTLQEGKLRAFYAGPAHTPDGIFVYFPDQQVLYGNCILKEKLGNLSFADVKAYPRTLERLKAMKLPIKTVVGGHDSPLHGPELIDHYEALIKAAPQS

> <PDB ID(s) of Target Chain>


> <UniProt (SwissProt) Recommended Name of Target Chain>


> <UniProt (SwissProt) Entry Name of Target Chain>


> <UniProt (SwissProt) Primary ID of Target Chain>


> <UniProt (SwissProt) Secondary ID(s) of Target Chain>


> <UniProt (SwissProt) Alternative ID(s) of Target Chain>


> <UniProt (TrEMBL) Submitted Name of Target Chain>
Beta-lactamase

> <UniProt (TrEMBL) Entry Name of Target Chain>
Q44079_AERHY

> <UniProt (TrEMBL) Primary ID of Target Chain>
Q44079

> <UniProt (TrEMBL) Secondary ID(s) of Target Chain>


> <UniProt (TrEMBL) Alternative ID(s) of Target Chain>


$$$$

  Mrv0541 11231401522D          

 14 14  0  0  0  0            999 V2000
    0.8810   -3.8245    0.0000 B   0  0  0  0  0  0  0  0  0  0  0  0
    1.7060   -3.8311    0.0000 C   0  0  0  0  0  0  0  0  0  0  0  0
    4.5966   -5.9726    0.0000 C   0  0  0  0  0  0  0  0  0  0  0  0
    4.1874   -5.2599    0.0000 C   0  0  0  0  0  0  0  0  0  0  0  0
    3.3592   -5.2599    0.0000 C   0  0  0  0  0  0  0  0  0  0  0  0
    2.1185   -4.5471    0.0000 C   0  0  0  0  0  0  0  0  0  0  0  0
    5.4282   -5.9726    0.0000 O   0  0  0  0  0  0  0  0  0  0  0  0
    2.9500   -4.5471    0.0000 C   0  0  0  0  0  0  0  0  0  0  0  0
    0.4587   -4.5372    0.0000 O   0  0  0  0  0  0  0  0  0  0  0  0
    0.4686   -3.1084    0.0000 O   0  0  0  0  0  0  0  0  0  0  0  0
    4.1908   -6.6920    0.0000 O   0  0  0  0  0  0  0  0  0  0  0  0
    2.1185   -3.1183    0.0000 C   0  0  0  0  0  0  0  0  0  0  0  0
    2.9434   -3.1216    0.0000 C   0  0  0  0  0  0  0  0  0  0  0  0
    3.3592   -3.8344    0.0000 C   0  0  0  0  0  0  0  0  0  0  0  0
  2  1  1  0  0  0  0
  3  4  1  0  0  0  0
  4  5  2  0  0  0  0
  5  8  1  0  0  0  0
  6  2  2  0  0  0  0
  7  3  2  0  0  0  0
  8  6  1  0  0  0  0
  9  1  1  0  0  0  0
 10  1  1  0  0  0  0
 11  3  1  0  0  0  0
 12  2  1  0  0  0  0
 13 12  2  0  0  0  0
 14 13  1  0  0  0  0
  8 14  2  0  0  0  0
M  END
> <From>
www.bindingDB.org

> <BindingDB Reactant_set_id>
50117281

> <Ligand InChI>
InChI=1S/C9H9BO4/c11-9(12)5-4-7-2-1-3-8(6-7)10(13)14/h1-6,13-14H,(H,11,12)/b5-4+

> <Ligand InChI Key>
QCHIEOGZUMAQKI-SNAWJCMRSA-N

> <BindingDB MonomerID>
50067900

> <BindingDB Ligand Name>
3-phenylpropylester boronic acid::CHEMBL140747

> <Target Name>
Beta-lactamase

> <Target Source Organism According to Curator or DataSource>
Escherichia coli

> <Ki (nM)>
 5900

> <IC50 (nM)>


> <Kd (nM)>


> <EC50 (nM)>


> <kon (M-1-s-1)>


> <koff (s-1)>


> <pH>


> <Temp C>


> <Curation/DataSource>
ChEMBL

> <Article DOI>
10.1021/jm980343w

> <BindingDB Entry DOI>
10.7270/Q22N51FX

> <PMID>
9804697

> <PubChem AID>


> <Patent Number>


> <Authors>
Weston, GS; Blazquez, J; Baquero, F; Shoichet, BK

> <Institution>
Northwestern University Medical School

> <Link to Ligand in BindingDB>
http://www.bindingdb.org/bind/chemsearch/marvin/MolStructure.jsp?monomerid=50067900

> <Link to Ligand-Target Pair in BindingDB>
http://www.bindingdb.org/jsp/dbsearch/PrimarySearch_ki.jsp?energyterm=kJ/mole&tag=pol&polymerid=4401&target=Beta-lactamase&column=ki&startPg=0&Increment=50&submit=Search

> <Link to Ligand-Target Pair in BindingDB>
http://www.bindingdb.org/jsp/dbsearch/PrimarySearch_ki.jsp?energyterm=kJ/mole&tag=r21&monomerid=50067900&enzyme=Beta-lactamase&column=ki&startPg=0&Increment=50&submit=Search

> <Ligand HET ID in PDB>
KRT

> <PDB ID(s) for Ligand-Target Complex>
6S1S

> <PubChem CID of Ligand>
5844876

> <PubChem SID of Ligand>
103962326

> <ChEBI ID of Ligand>


> <ChEMBL ID of Ligand>
CHEMBL140747

> <DrugBank ID of Ligand>


> <IUPHAR_GRAC ID of Ligand>


> <KEGG ID of Ligand>


> <ZINC ID of Ligand>


> <Number of Protein Chains in Target (bigger than 1 implies a multichain complex)>
1

> <BindingDB Target Chain Sequence>
MFKTTLCALLITASCSTFAAPQQINDIVHRTITPLIEQQKIPGMAVAVIYQGKPYYFTWGYADIAKKQPVTQQTLFELGSVSKTFTGVLGGDAIARGEIKLSDPTTKYWPELTAKQWNGITLLHLATYTAGGLPLQVPDEVKSSSDLLRFYQNWQPAWAPGTQRLYANSSIGLFGALAVKPSGLSFEQAMQTRVFQPLKLNHTWINVPPAEEKNYAWGYREGKAVHVSPGALDAEAYGVKSTIEDMARWVQSNLKPLDINEKTLQQGIQLAQSRYWQTGDMYQGLGWEMLDWPVNPDSIINGSDNKIALAARPVKAITPPTPAVRASWVHKTGATGGFGSYVAFIPEKELGIVMLANKNYPNPARVDAAWQILNALQ

> <PDB ID(s) of Target Chain>
1C3B,1FCO,1FSW,1FSY,1GA9,1IEL,1IEM,1KDS,1KDW,1KE0,1KE3,1KE4,1KVM,1L2S,1LL5,1LL9,1LLB,1MXO,1MY8,1XGI,1XGJ,2BLS,2HDQ,2HDR,2HDS,2HDU,2I72,2P9V,2PU2,2PU4,2R9W,2R9X,2RCX,3BLS,3BM6,3GQZ,3GR2,3GRJ,3GSG,3GTC,3GV9,3GVB,3O86,3O87,3O88,4E3I,4E3J,4E3K,4E3L,4E3M,4E3N,4E3O,4JXG,4JXS,4JXV,4JXW,4KG2,4KZ3,4KZ4,4KZ5,4KZ6,4KZ7,4KZ8,4KZ9,4KZA,4KZB,4LV0,4LV1,4LV2,4LV3,4OKP,4OLD,4OLG,6DPT,6DPX,6DPY,6DPZ,6T35,6T3D,6T5Y,6T7L,6TBW,6TPM,6WGQ,6YEN,6YEO,6YPD

> <UniProt (SwissProt) Recommended Name of Target Chain>
Beta-lactamase

> <UniProt (SwissProt) Entry Name of Target Chain>
AMPC_ECOLI

> <UniProt (SwissProt) Primary ID of Target Chain>
P00811

> <UniProt (SwissProt) Secondary ID(s) of Target Chain>
Q2M6F2

> <UniProt (SwissProt) Alternative ID(s) of Target Chain>


> <UniProt (TrEMBL) Submitted Name of Target Chain>


> <UniProt (TrEMBL) Entry Name of Target Chain>


> <UniProt (TrEMBL) Primary ID of Target Chain>


> <UniProt (TrEMBL) Secondary ID(s) of Target Chain>


> <UniProt (TrEMBL) Alternative ID(s) of Target Chain>


$$$$
12
  Mrv0541 11181423542D          

 11 11  0  0  0  0            999 V2000
   -0.4062    2.6375    0.0000 C   0  0  0  0  0  0  0  0  0  0  0  0
   -1.1207    2.2250    0.0000 C   0  0  0  0  0  0  0  0  0  0  0  0
   -1.1207    1.4000    0.0000 C   0  0  0  0  0  0  0  0  0  0  0  0
   -0.4062    0.9875    0.0000 C   0  0  0  0  0  0  0  0  0  0  0  0
    0.3082    1.4000    0.0000 C   0  0  0  0  0  0  0  0  0  0  0  0
    0.3082    2.2250    0.0000 C   0  0  0  0  0  0  0  0  0  0  0  0
    1.0227    2.6375    0.0000 B   0  0  0  0  0  0  0  0  0  0  0  0
    1.0227    3.4625    0.0000 O   0  0  0  0  0  0  0  0  0  0  0  0
    1.7372    2.2250    0.0000 O   0  0  0  0  0  0  0  0  0  0  0  0
   -2.5497    1.4000    0.0000 C   0  0  0  0  0  0  0  0  0  0  0  0
   -1.8352    0.9875    0.0000 O   0  0  0  0  0  0  0  0  0  0  0  0
  1  2  2  0  0  0  0
  1  6  1  0  0  0  0
  2  3  1  0  0  0  0
  3  4  2  0  0  0  0
  4  5  1  0  0  0  0
  5  6  2  0  0  0  0
  6  7  1  0  0  0  0
  7  8  1  0  0  0  0
  7  9  1  0  0  0  0
  3 11  1  0  0  0  0
 10 11  1  0  0  0  0
M  END
> <From>
www.bindingDB.org

> <BindingDB Reactant_set_id>
50117278

> <Ligand InChI>
InChI=1S/C7H9BO3/c1-11-7-4-2-6(3-5-7)8(9)10/h2-5,9-10H,1H3

> <Ligand InChI Key>
VOAAEKKFGLPLLU-UHFFFAOYSA-N

> <BindingDB MonomerID>
26133

> <BindingDB Ligand Name>
(4-methoxyphenyl)boranediol::CHEMBL21427::Phenylboronic Acid, 12

> <Target Name>
Beta-lactamase

> <Target Source Organism According to Curator or DataSource>
Escherichia coli

> <Ki (nM)>
 5900

> <IC50 (nM)>


> <Kd (nM)>


> <EC50 (nM)>


> <kon (M-1-s-1)>


> <koff (s-1)>


> <pH>


> <Temp C>


> <Curation/DataSource>
ChEMBL

> <Article DOI>
10.1021/jm980343w

> <BindingDB Entry DOI>
10.7270/Q22N51FX

> <PMID>
9804697

> <PubChem AID>


> <Patent Number>


> <Authors>
Weston, GS; Blazquez, J; Baquero, F; Shoichet, BK

> <Institution>
Northwestern University Medical School

> <Link to Ligand in BindingDB>
http://www.bindingdb.org/bind/chemsearch/marvin/MolStructure.jsp?monomerid=26133

> <Link to Ligand-Target Pair in BindingDB>
http://www.bindingdb.org/jsp/dbsearch/PrimarySearch_ki.jsp?energyterm=kJ/mole&tag=pol&polymerid=4401&target=Beta-lactamase&column=ki&startPg=0&Increment=50&submit=Search

> <Link to Ligand-Target Pair in BindingDB>
http://www.bindingdb.org/jsp/dbsearch/PrimarySearch_ki.jsp?energyterm=kJ/mole&tag=r21&monomerid=26133&enzyme=Beta-lactamase&column=ki&startPg=0&Increment=50&submit=Search

> <Ligand HET ID in PDB>


> <PDB ID(s) for Ligand-Target Complex>


> <PubChem CID of Ligand>
201262

> <PubChem SID of Ligand>
56464570

> <ChEBI ID of Ligand>


> <ChEMBL ID of Ligand>
CHEMBL21427

> <DrugBank ID of Ligand>


> <IUPHAR_GRAC ID of Ligand>


> <KEGG ID of Ligand>


> <ZINC ID of Ligand>


> <Number of Protein Chains in Target (bigger than 1 implies a multichain complex)>
1

> <BindingDB Target Chain Sequence>
MFKTTLCALLITASCSTFAAPQQINDIVHRTITPLIEQQKIPGMAVAVIYQGKPYYFTWGYADIAKKQPVTQQTLFELGSVSKTFTGVLGGDAIARGEIKLSDPTTKYWPELTAKQWNGITLLHLATYTAGGLPLQVPDEVKSSSDLLRFYQNWQPAWAPGTQRLYANSSIGLFGALAVKPSGLSFEQAMQTRVFQPLKLNHTWINVPPAEEKNYAWGYREGKAVHVSPGALDAEAYGVKSTIEDMARWVQSNLKPLDINEKTLQQGIQLAQSRYWQTGDMYQGLGWEMLDWPVNPDSIINGSDNKIALAARPVKAITPPTPAVRASWVHKTGATGGFGSYVAFIPEKELGIVMLANKNYPNPARVDAAWQILNALQ

> <PDB ID(s) of Target Chain>
1C3B,1FCO,1FSW,1FSY,1GA9,1IEL,1IEM,1KDS,1KDW,1KE0,1KE3,1KE4,1KVM,1L2S,1LL5,1LL9,1LLB,1MXO,1MY8,1XGI,1XGJ,2BLS,2HDQ,2HDR,2HDS,2HDU,2I72,2P9V,2PU2,2PU4,2R9W,2R9X,2RCX,3BLS,3BM6,3GQZ,3GR2,3GRJ,3GSG,3GTC,3GV9,3GVB,3O86,3O87,3O88,4E3I,4E3J,4E3K,4E3L,4E3M,4E3N,4E3O,4JXG,4JXS,4JXV,4JXW,4KG2,4KZ3,4KZ4,4KZ5,4KZ6,4KZ7,4KZ8,4KZ9,4KZA,4KZB,4LV0,4LV1,4LV2,4LV3,4OKP,4OLD,4OLG,6DPT,6DPX,6DPY,6DPZ,6T35,6T3D,6T5Y,6T7L,6TBW,6TPM,6WGQ,6YEN,6YEO,6YPD

> <UniProt (SwissProt) Recommended Name of Target Chain>
Beta-lactamase

> <UniProt (SwissProt) Entry Name of Target Chain>
AMPC_ECOLI

> <UniProt (SwissProt) Primary ID of Target Chain>
P00811

> <UniProt (SwissProt) Secondary ID(s) of Target Chain>
Q2M6F2

> <UniProt (SwissProt) Alternative ID(s) of Target Chain>


> <UniProt (TrEMBL) Submitted Name of Target Chain>


> <UniProt (TrEMBL) Entry Name of Target Chain>


> <UniProt (TrEMBL) Primary ID of Target Chain>


> <UniProt (TrEMBL) Secondary ID(s) of Target Chain>


> <UniProt (TrEMBL) Alternative ID(s) of Target Chain>


$$$$

  Mrv0541 11231414582D          

 19 21  0  0  0  0            999 V2000
   15.9918  -15.0752    0.0000 C   0  0  0  0  0  0  0  0  0  0  0  0
   15.9907  -15.9020    0.0000 C   0  0  0  0  0  0  0  0  0  0  0  0
   16.7046  -16.3146    0.0000 C   0  0  0  0  0  0  0  0  0  0  0  0
   16.7030  -14.6627    0.0000 C   0  0  0  0  0  0  0  0  0  0  0  0
   17.4174  -15.0718    0.0000 C   0  0  0  0  0  0  0  0  0  0  0  0
   17.4175  -15.8975    0.0000 C   0  0  0  0  0  0  0  0  0  0  0  0
   18.2027  -16.1525    0.0000 C   0  0  0  0  0  0  0  0  0  0  0  0
   18.6880  -15.4844    0.0000 O   0  0  0  0  0  0  0  0  0  0  0  0
   18.2026  -14.8167    0.0000 B   0  0  0  0  0  0  0  0  0  0  0  0
   18.4573  -14.0324    0.0000 O   0  0  0  0  0  0  0  0  0  0  0  0
   15.2775  -14.6632    0.0000 O   0  0  0  0  0  0  0  0  0  0  0  0
   14.5636  -15.0757    0.0000 C   0  0  0  0  0  0  0  0  0  0  0  0
   13.8513  -14.6594    0.0000 C   0  0  0  0  0  0  0  0  0  0  0  0
   13.1379  -15.0712    0.0000 C   0  0  0  0  0  0  0  0  0  0  0  0
   13.1377  -15.8967    0.0000 C   0  0  0  0  0  0  0  0  0  0  0  0
   13.8570  -16.3085    0.0000 C   0  0  0  0  0  0  0  0  0  0  0  0
   14.5675  -15.8943    0.0000 C   0  0  0  0  0  0  0  0  0  0  0  0
   12.4243  -16.3102    0.0000 O   0  0  0  0  0  0  0  0  0  0  0  0
   11.7095  -15.8991    0.0000 C   0  0  0  0  0  0  0  0  0  0  0  0
  9  5  1  0  0  0  0
  4  1  2  0  0  0  0
  9 10  1  0  0  0  0
  5  6  2  0  0  0  0
  1 11  1  0  0  0  0
 11 12  1  0  0  0  0
  2  3  2  0  0  0  0
 12 13  2  0  0  0  0
  3  6  1  0  0  0  0
 13 14  1  0  0  0  0
  1  2  1  0  0  0  0
 14 15  2  0  0  0  0
  5  4  1  0  0  0  0
 15 16  1  0  0  0  0
  6  7  1  0  0  0  0
 16 17  2  0  0  0  0
 17 12  1  0  0  0  0
  7  8  1  0  0  0  0
 15 18  1  0  0  0  0
  8  9  1  0  0  0  0
 18 19  1  0  0  0  0
M  END
> <From>
www.bindingDB.org

> <BindingDB Reactant_set_id>
50629874

> <Ligand InChI>
InChI=1S/C14H13BO4/c1-17-11-4-6-12(7-5-11)19-13-3-2-10-9-18-15(16)14(10)8-13/h2-8,16H,9H2,1H3

> <Ligand InChI Key>
UNGCWOQNUSRHBE-UHFFFAOYSA-N

> <BindingDB MonomerID>
50339863

> <BindingDB Ligand Name>
6-(4-methoxyphenoxy)benzo[c][1,2]oxaborol-1(3H)-ol::CHEMBL1761269

> <Target Name>
Beta-lactamase

> <Target Source Organism According to Curator or DataSource>
Enterobacter cloacae

> <Ki (nM)>
 6000

> <IC50 (nM)>


> <Kd (nM)>


> <EC50 (nM)>


> <kon (M-1-s-1)>


> <koff (s-1)>


> <pH>


> <Temp C>


> <Curation/DataSource>
ChEMBL

> <Article DOI>
10.1016/j.bmcl.2011.02.024

> <BindingDB Entry DOI>
10.7270/Q2G44QK5

> <PMID>
21392987

> <PubChem AID>


> <Patent Number>


> <Authors>
Xia, Y; Cao, K; Zhou, Y; Alley, MR; Rock, F; Mohan, M; Meewan, M; Baker, SJ; Lux, S; Ding, CZ; Jia, G; Kully, M; Plattner, JJ

> <Institution>
Anacor Pharmaceuticals Inc

> <Link to Ligand in BindingDB>
http://www.bindingdb.org/bind/chemsearch/marvin/MolStructure.jsp?monomerid=50339863

> <Link to Ligand-Target Pair in BindingDB>
http://www.bindingdb.org/jsp/dbsearch/PrimarySearch_ki.jsp?energyterm=kJ/mole&tag=pol&polymerid=50002394&target=Beta-lactamase&column=ki&startPg=0&Increment=50&submit=Search

> <Link to Ligand-Target Pair in BindingDB>
http://www.bindingdb.org/jsp/dbsearch/PrimarySearch_ki.jsp?energyterm=kJ/mole&tag=r21&monomerid=50339863&enzyme=Beta-lactamase&column=ki&startPg=0&Increment=50&submit=Search

> <Ligand HET ID in PDB>


> <PDB ID(s) for Ligand-Target Complex>


> <PubChem CID of Ligand>
25010444

> <PubChem SID of Ligand>
131342799

> <ChEBI ID of Ligand>


> <ChEMBL ID of Ligand>
CHEMBL1761269

> <DrugBank ID of Ligand>


> <IUPHAR_GRAC ID of Ligand>


> <KEGG ID of Ligand>


> <ZINC ID of Ligand>


> <Number of Protein Chains in Target (bigger than 1 implies a multichain complex)>
1

> <BindingDB Target Chain Sequence>
MMRKSLCCALLLGISCSALATPVSEKQLAEVVANTITPLMKAQSVPGMAVAVIYQGKPHYYTFGKADIAANKPVTPQTLFELGSISKTFTGVLGGDAIARGEISLDDAVTRYWPQLTGKQWQGIRMLDLATYTAGGLPLQVPDEVTDNASLLRFYQNWQPQWKPGTTRLYANASIGLFGALAVKPSGMPYEQAMTTRVLKPLKLDHTWINVPKAEEAHYAWGYRDGKAVRVSPGMLDAQAYGVKTNVQDMANWVMANMAPENVADASLKQGIALAQSRYWRIGSMYQGLGWEMLNWPVEANTVVEGSDSKVALAPLPVAEVNPPAPPVKASWVHKTGSTGGFGSYVAFIPEKQIGIVMLANTSYPNPARVEAAYHILEALQ

> <PDB ID(s) of Target Chain>
1XX2,2Q9M,2Q9N,7TI1

> <UniProt (SwissProt) Recommended Name of Target Chain>
Beta-lactamase

> <UniProt (SwissProt) Entry Name of Target Chain>
AMPC_ENTCL

> <UniProt (SwissProt) Primary ID of Target Chain>
P05364

> <UniProt (SwissProt) Secondary ID(s) of Target Chain>


> <UniProt (SwissProt) Alternative ID(s) of Target Chain>


> <UniProt (TrEMBL) Submitted Name of Target Chain>


> <UniProt (TrEMBL) Entry Name of Target Chain>


> <UniProt (TrEMBL) Primary ID of Target Chain>


> <UniProt (TrEMBL) Secondary ID(s) of Target Chain>


> <UniProt (TrEMBL) Alternative ID(s) of Target Chain>


$$$$

  Mrv0541 11211411482D          

 27 29  0  0  0  0            999 V2000
    4.1375   -2.2750    0.0000 S   0  0  0  0  0  0  0  0  0  0  0  0
    4.5375   -0.1667    0.0000 C   0  0  0  0  0  0  0  0  0  0  0  0
    5.1167    0.4208    0.0000 S   0  0  0  0  0  0  0  0  0  0  0  0
    4.1375   -1.4417    0.0000 C   0  0  0  0  0  0  0  0  0  0  0  0
    4.7917   -0.9542    0.0000 C   0  0  0  0  0  0  0  0  0  0  0  0
    3.4625   -0.9625    0.0000 S   0  0  0  0  0  0  0  0  0  0  0  0
    3.7125   -0.1750    0.0000 C   0  0  0  0  0  0  0  0  0  0  0  0
    3.3125   -2.2750    0.0000 N   0  0  0  0  0  0  0  0  0  0  0  0
    0.6750   -3.5792    0.0000 B   0  0  0  0  0  0  0  0  0  0  0  0
    1.5000   -3.5792    0.0000 C   0  0  0  0  0  0  0  0  0  0  0  0
    4.9625   -2.2750    0.0000 O   0  0  0  0  0  0  0  0  0  0  0  0
    4.1375   -3.1000    0.0000 O   0  0  0  0  0  0  0  0  0  0  0  0
    1.9042   -2.8667    0.0000 C   0  0  0  0  0  0  0  0  0  0  0  0
    5.5250   -0.2917    0.0000 O   0  0  0  0  0  0  0  0  0  0  0  0
    5.7000    1.0083    0.0000 O   0  0  0  0  0  0  0  0  0  0  0  0
    4.5292    1.0083    0.0000 C   0  0  0  0  0  0  0  0  0  0  0  0
    2.7292   -2.8625    0.0000 C   0  0  0  0  0  0  0  0  0  0  0  0
    0.2542   -2.8625    0.0000 O   0  0  0  0  0  0  0  0  0  0  0  0
    0.0875   -4.1625    0.0000 O   0  0  0  0  0  0  0  0  0  0  0  0
    1.9042   -4.2875    0.0000 C   0  0  0  0  0  0  0  0  0  0  0  0
    2.7292   -4.2875    0.0000 C   0  0  0  0  0  0  0  0  0  0  0  0
    3.1417   -3.5750    0.0000 C   0  0  0  0  0  0  0  0  0  0  0  0
    3.7292    0.7958    0.0000 C   0  0  0  0  0  0  0  0  0  0  0  0
    4.7500    1.8083    0.0000 C   0  0  0  0  0  0  0  0  0  0  0  0
    4.1625    2.3958    0.0000 C   0  0  0  0  0  0  0  0  0  0  0  0
    3.1417    1.3750    0.0000 C   0  0  0  0  0  0  0  0  0  0  0  0
    3.3542    2.1833    0.0000 C   0  0  0  0  0  0  0  0  0  0  0  0
  2  5  1  0  0  0  0
  3  2  1  0  0  0  0
  4  1  1  0  0  0  0
  5  4  2  0  0  0  0
  6  4  1  0  0  0  0
  7  6  1  0  0  0  0
  8  1  1  0  0  0  0
  9 10  1  0  0  0  0
 10 13  2  0  0  0  0
 11  1  2  0  0  0  0
 12  1  2  0  0  0  0
 13 17  1  0  0  0  0
 14  3  2  0  0  0  0
 15  3  2  0  0  0  0
 16  3  1  0  0  0  0
 17  8  1  0  0  0  0
 18  9  1  0  0  0  0
 19  9  1  0  0  0  0
 20 21  2  0  0  0  0
 21 22  1  0  0  0  0
 22 17  2  0  0  0  0
 23 16  2  0  0  0  0
 24 16  1  0  0  0  0
 25 24  2  0  0  0  0
 26 23  1  0  0  0  0
 27 25  1  0  0  0  0
  7  2  2  0  0  0  0
 20 10  1  0  0  0  0
 26 27  2  0  0  0  0
M  END
> <From>
www.bindingDB.org

> <BindingDB Reactant_set_id>
74844

> <Ligand InChI>
InChI=1S/C16H14BNO6S3/c19-17(20)12-5-4-6-13(9-12)18-27(23,24)16-10-15(11-25-16)26(21,22)14-7-2-1-3-8-14/h1-11,18-20H

> <Ligand InChI Key>
YZOKHYPIQNIFRQ-UHFFFAOYSA-N

> <BindingDB MonomerID>
50115616

> <BindingDB Ligand Name>
3-(4-BENZENESULFONYL-THIOPHENE-2-SULFONYLAMINO)-PHENYLBORONIC ACID::4-Benzenesulfonyl-thiophene-2-sulfonic acid (3-dihydroxyboranyl-phenyl)-amide::Amide and sulfonamide derivatives, 2::Aza-boronic acid derivative::CHEMBL113381

> <Target Name>
Beta-lactamase

> <Target Source Organism According to Curator or DataSource>
Enterobacter cloacae

> <Ki (nM)>
 6e+3

> <IC50 (nM)>


> <Kd (nM)>


> <EC50 (nM)>


> <kon (M-1-s-1)>


> <koff (s-1)>


> <pH>
7

> <Temp C>


> <Curation/DataSource>
Curated from the literature by BindingDB

> <Article DOI>
10.1016/S1074-5521(01)00034-5

> <BindingDB Entry DOI>
10.7270/Q27M06BZ

> <PMID>
11410378

> <PubChem AID>
aid1799472

> <Patent Number>


> <Authors>
Tondi, D; Powers, RA; Caselli, E; Negri, MC; Bl&aacute;zquez, J; Costi, MP; Shoichet, BK

> <Institution>
Northwestern University

> <Link to Ligand in BindingDB>
http://www.bindingdb.org/bind/chemsearch/marvin/MolStructure.jsp?monomerid=50115616

> <Link to Ligand-Target Pair in BindingDB>
http://www.bindingdb.org/jsp/dbsearch/PrimarySearch_ki.jsp?energyterm=kJ/mole&tag=pol&polymerid=50002394&target=Beta-lactamase&column=ki&startPg=0&Increment=50&submit=Search

> <Link to Ligand-Target Pair in BindingDB>
http://www.bindingdb.org/jsp/dbsearch/PrimarySearch_ki.jsp?energyterm=kJ/mole&tag=r21&monomerid=50115616&enzyme=Beta-lactamase&column=ki&startPg=0&Increment=50&submit=Search

> <Ligand HET ID in PDB>
ETP

> <PDB ID(s) for Ligand-Target Complex>
1GA9

> <PubChem CID of Ligand>
1475

> <PubChem SID of Ligand>
104009505

> <ChEBI ID of Ligand>


> <ChEMBL ID of Ligand>
CHEMBL113381

> <DrugBank ID of Ligand>
DB02858

> <IUPHAR_GRAC ID of Ligand>


> <KEGG ID of Ligand>


> <ZINC ID of Ligand>


> <Number of Protein Chains in Target (bigger than 1 implies a multichain complex)>
1

> <BindingDB Target Chain Sequence>
MMRKSLCCALLLGISCSALATPVSEKQLAEVVANTITPLMKAQSVPGMAVAVIYQGKPHYYTFGKADIAANKPVTPQTLFELGSISKTFTGVLGGDAIARGEISLDDAVTRYWPQLTGKQWQGIRMLDLATYTAGGLPLQVPDEVTDNASLLRFYQNWQPQWKPGTTRLYANASIGLFGALAVKPSGMPYEQAMTTRVLKPLKLDHTWINVPKAEEAHYAWGYRDGKAVRVSPGMLDAQAYGVKTNVQDMANWVMANMAPENVADASLKQGIALAQSRYWRIGSMYQGLGWEMLNWPVEANTVVEGSDSKVALAPLPVAEVNPPAPPVKASWVHKTGSTGGFGSYVAFIPEKQIGIVMLANTSYPNPARVEAAYHILEALQ

> <PDB ID(s) of Target Chain>
1XX2,2Q9M,2Q9N,7TI1

> <UniProt (SwissProt) Recommended Name of Target Chain>
Beta-lactamase

> <UniProt (SwissProt) Entry Name of Target Chain>
AMPC_ENTCL

> <UniProt (SwissProt) Primary ID of Target Chain>
P05364

> <UniProt (SwissProt) Secondary ID(s) of Target Chain>


> <UniProt (SwissProt) Alternative ID(s) of Target Chain>


> <UniProt (TrEMBL) Submitted Name of Target Chain>


> <UniProt (TrEMBL) Entry Name of Target Chain>


> <UniProt (TrEMBL) Primary ID of Target Chain>


> <UniProt (TrEMBL) Secondary ID(s) of Target Chain>


> <UniProt (TrEMBL) Alternative ID(s) of Target Chain>


$$$$
 
  Mrv0541 11221422532D          

 14 15  0  0  0  0            999 V2000
    8.4706   -2.8163    0.0000 C   0  0  1  0  0  0  0  0  0  0  0  0
    8.9602   -2.1521    0.0000 C   0  0  0  0  0  0  0  0  0  0  0  0
    8.4799   -1.4815    0.0000 O   0  0  0  0  0  0  0  0  0  0  0  0
    7.6878   -2.5558    0.0000 N   0  0  0  0  0  0  0  0  0  0  0  0
    7.6935   -1.7309    0.0000 C   0  0  1  0  0  0  0  0  0  0  0  0
    6.8686   -1.7252    0.0000 C   0  0  0  0  0  0  0  0  0  0  0  0
    6.8629   -2.5502    0.0000 C   0  0  0  0  0  0  0  0  0  0  0  0
    8.7201   -3.6027    0.0000 C   0  0  0  0  0  0  0  0  0  0  0  0
    8.1638   -4.2118    0.0000 O   0  0  0  0  0  0  0  0  0  0  0  0
    9.5258   -3.7798    0.0000 O   0  0  0  0  0  0  0  0  0  0  0  0
    9.7852   -2.1578    0.0000 C   0  0  0  0  0  0  0  0  0  0  0  0
    6.2755   -3.1294    0.0000 O   0  0  0  0  0  0  0  0  0  0  0  0
   10.2026   -1.4463    0.0000 C   0  0  0  0  0  0  0  0  0  0  0  0
   11.0275   -1.4519    0.0000 O   0  0  0  0  0  0  0  0  0  0  0  0
  7  4  1  0  0  0  0
  5  3  1  0  0  0  0
  1  8  1  6  0  0  0
  5  4  1  1  0  0  0
  8  9  2  0  0  0  0
  8 10  1  0  0  0  0
  1  4  1  0  0  0  0
  2 11  2  0  0  0  0
  1  2  1  0  0  0  0
  7 12  2  0  0  0  0
  2  3  1  0  0  0  0
  5  6  1  0  0  0  0
 11 13  1  0  0  0  0
  6  7  1  0  0  0  0
 13 14  1  0  0  0  0
M  END
> <From>
www.bindingDB.org

> <BindingDB Reactant_set_id>
293379

> <Ligand InChI>
InChI=1S/C8H9NO5/c10-2-1-4-7(8(12)13)9-5(11)3-6(9)14-4/h1,6-7,10H,2-3H2,(H,12,13)/b4-1-/t6-,7-/m1/s1

> <Ligand InChI Key>
HZZVJAQRINQKSD-PBFISZAISA-N

> <BindingDB MonomerID>
50021959

> <BindingDB Ligand Name>
CHEMBL777::MM 14151::US9120808, Clavulanic acid potassium salt::antibiotic MM 14151::clavulanic acid

> <Target Name>
Beta-lactamase

> <Target Source Organism According to Curator or DataSource>


> <Ki (nM)>
 6.3e+3

> <IC50 (nM)>


> <Kd (nM)>


> <EC50 (nM)>


> <kon (M-1-s-1)>


> <koff (s-1)>


> <pH>
7.2

> <Temp C>


> <Curation/DataSource>
Curated from the literature by BindingDB

> <Article DOI>
10.1021/acs.biochem.5b00698

> <BindingDB Entry DOI>
10.7270/Q29W0D7G

> <PMID>
26237118

> <PubChem AID>
aid1801074

> <Patent Number>


> <Authors>
Hazra, S; Kurz, SG; Wolff, K; Nguyen, L; Bonomo, RA; Blanchard, JS

> <Institution>
Indian Institute of Technology

> <Link to Ligand in BindingDB>
http://www.bindingdb.org/bind/chemsearch/marvin/MolStructure.jsp?monomerid=50021959

> <Link to Ligand-Target Pair in BindingDB>
http://www.bindingdb.org/jsp/dbsearch/PrimarySearch_ki.jsp?energyterm=kJ/mole&tag=pol&polymerid=7006&target=Beta-lactamase&column=ki&startPg=0&Increment=50&submit=Search

> <Link to Ligand-Target Pair in BindingDB>
http://www.bindingdb.org/jsp/dbsearch/PrimarySearch_ki.jsp?energyterm=kJ/mole&tag=r21&monomerid=50021959&enzyme=Beta-lactamase&column=ki&startPg=0&Increment=50&submit=Search

> <Ligand HET ID in PDB>
J01

> <PDB ID(s) for Ligand-Target Complex>
6NVU,2XH9,2XF3,2XFS,6PQ8,2JAP

> <PubChem CID of Ligand>
5280980

> <PubChem SID of Ligand>
103932648

> <ChEBI ID of Ligand>
48947

> <ChEMBL ID of Ligand>
CHEMBL777

> <DrugBank ID of Ligand>
DB00766

> <IUPHAR_GRAC ID of Ligand>


> <KEGG ID of Ligand>
C06662

> <ZINC ID of Ligand>
ZINC03830569

> <Number of Protein Chains in Target (bigger than 1 implies a multichain complex)>
1

> <BindingDB Target Chain Sequence>
MRNRGFGRRELLVAMAMLVSVTGCARHASGARPASTTLPAGADLADRFAELERRYDARLGVYVPATGTTA
AIEYRADERFAFCSTFKAPLVAAVLHQNPLTHLDKLITYTSDDIRSISPVAQQHVQTGMTIGQLCDAAIR
YSDGTAANLLLADLGGPGGGTAAFTGYLRSLGDTVSRLDAEEPELNRDPPGDERDTTTPHAIALVLQQLV
LGNALPPDKRALLTDWMARNTTGAKRIRAGFPADWKVIDKTGTGDYGRANDIAVVWSPTGVPYVVAVMSD
RAGGGYDAEPREALLAEAATCVAGVLA

> <PDB ID(s) of Target Chain>
2GDN,3CG5,3DWZ,3IQA,3M6B,3M6H,3ZHH,4DF6,4Q8I,4QHC,4X6T,5NJ2,5OYO,6B5X,6B5Y,6B68,6B69,6B6A,6B6B,6B6C,6B6D,6B6E,6B6F,6H2C,6H2G,6H2H,6H2I,6H2K,7K8E,7K8F,7K8H,7K8K,7K8L,8BV4,8EBI,8EBR,8EC4,8ECF

> <UniProt (SwissProt) Recommended Name of Target Chain>
Beta-lactamase

> <UniProt (SwissProt) Entry Name of Target Chain>
BLAC_MYCTO

> <UniProt (SwissProt) Primary ID of Target Chain>
P9WKD2

> <UniProt (SwissProt) Secondary ID(s) of Target Chain>
L0T8I9 P0A5I6 P0C5C1 Q10670

> <UniProt (SwissProt) Alternative ID(s) of Target Chain>


> <UniProt (TrEMBL) Submitted Name of Target Chain>


> <UniProt (TrEMBL) Entry Name of Target Chain>


> <UniProt (TrEMBL) Primary ID of Target Chain>


> <UniProt (TrEMBL) Secondary ID(s) of Target Chain>


> <UniProt (TrEMBL) Alternative ID(s) of Target Chain>


$$$$
 
     RDKit          2D

 17 17  0  0  0  0  0  0  0  0999 V2000
   13.6007  -20.7022    0.0000 C   0  0  0  0  0  0  0  0  0  0  0  0
   14.3084  -20.2895    0.0000 C   0  0  0  0  0  0  0  0  0  0  0  0
   15.0203  -20.7022    0.0000 N   0  0  0  0  0  0  0  0  0  0  0  0
   15.7321  -20.2895    0.0000 C   0  0  0  0  0  0  0  0  0  0  0  0
   16.4439  -20.7022    0.0000 B   0  0  0  0  0  0  0  0  0  0  0  0
   17.1558  -20.2895    0.0000 O   0  0  0  0  0  0  0  0  0  0  0  0
   16.4439  -21.5235    0.0000 O   0  0  0  0  0  0  0  0  0  0  0  0
   15.7321  -19.4723    0.0000 C   0  0  0  0  0  0  0  0  0  0  0  0
   14.3084  -19.4682    0.0000 O   0  0  0  0  0  0  0  0  0  0  0  0
   12.8940  -20.2877    0.0000 C   0  0  0  0  0  0  0  0  0  0  0  0
   12.1853  -20.6987    0.0000 S   0  0  0  0  0  0  0  0  0  0  0  0
   13.5987  -21.5194    0.0000 C   0  0  0  0  0  0  0  0  0  0  0  0
   16.4411  -19.0669    0.0000 C   0  0  0  0  0  0  0  0  0  0  0  0
   16.4414  -18.2505    0.0000 C   0  0  0  0  0  0  0  0  0  0  0  0
   15.7337  -17.8390    0.0000 C   0  0  0  0  0  0  0  0  0  0  0  0
   15.0242  -18.2541    0.0000 C   0  0  0  0  0  0  0  0  0  0  0  0
   15.0274  -19.0691    0.0000 C   0  0  0  0  0  0  0  0  0  0  0  0
  1  2  1  0
  2  3  1  0
  3  4  1  0
  4  5  1  1
  5  6  1  0
  5  7  1  0
  4  8  1  0
  2  9  2  0
  1 10  1  0
 10 11  1  0
  1 12  1  6
  8 13  2  0
 13 14  1  0
 14 15  2  0
 15 16  1  0
 16 17  2  0
 17  8  1  0
M  END
> <From>
www.bindingDB.org

> <BindingDB Reactant_set_id>
51270529

> <Ligand InChI>
InChI=1S/C11H16BNO3S/c1-8(7-17)11(14)13-10(12(15)16)9-5-3-2-4-6-9/h2-6,8,10,15-17H,7H2,1H3,(H,13,14)/t8-,10+/m1/s1

> <Ligand InChI Key>
JSHOMWZZXGBSLY-SCZZXKLOSA-N

> <BindingDB MonomerID>
50518901

> <BindingDB Ligand Name>
CHEMBL4468952

> <Target Name>
Beta-lactamase TEM

> <Target Source Organism According to Curator or DataSource>


> <Ki (nM)>
 6370

> <IC50 (nM)>


> <Kd (nM)>


> <EC50 (nM)>


> <kon (M-1-s-1)>


> <koff (s-1)>


> <pH>


> <Temp C>


> <Curation/DataSource>
ChEMBL

> <Article DOI>
10.1021/acs.jmedchem.9b00735

> <BindingDB Entry DOI>
10.7270/Q22R3W2M

> <PMID>
31269398

> <PubChem AID>


> <Patent Number>


> <Authors>
Wang, YL; Liu, S; Yu, ZJ; Lei, Y; Huang, MY; Yan, YH; Ma, Q; Zheng, Y; Deng, H; Sun, Y; Wu, C; Yu, Y; Chen, Q; Wang, Z; Wu, Y; Li, GB

> <Institution>
Sichuan University

> <Link to Ligand in BindingDB>
http://www.bindingdb.org/bind/chemsearch/marvin/MolStructure.jsp?monomerid=50518901

> <Link to Ligand-Target Pair in BindingDB>
http://www.bindingdb.org/jsp/dbsearch/PrimarySearch_ki.jsp?energyterm=kJ/mole&tag=pol&polymerid=7704&target=Beta-lactamase+TEM&column=ki&startPg=0&Increment=50&submit=Search

> <Link to Ligand-Target Pair in BindingDB>
http://www.bindingdb.org/jsp/dbsearch/PrimarySearch_ki.jsp?energyterm=kJ/mole&tag=r21&monomerid=50518901&enzyme=Beta-lactamase+TEM&column=ki&startPg=0&Increment=50&submit=Search

> <Ligand HET ID in PDB>


> <PDB ID(s) for Ligand-Target Complex>


> <PubChem CID of Ligand>
155533176

> <PubChem SID of Ligand>
440727483

> <ChEBI ID of Ligand>


> <ChEMBL ID of Ligand>


> <DrugBank ID of Ligand>


> <IUPHAR_GRAC ID of Ligand>


> <KEGG ID of Ligand>


> <ZINC ID of Ligand>


> <Number of Protein Chains in Target (bigger than 1 implies a multichain complex)>
1

> <BindingDB Target Chain Sequence>
MSIQHFRVALIPFFAAFCLPVFAHPETLVKVKDAEDQLGARVGYIELDLNSGKILESFRPEERFPMMSTFKVLLCGAVLSRVDAGQEQLGRRIHYSQNDLVEYSPVTEKHLTDGMTVRELCSAAITMSDNTAANLLLTTIGGPKELTAFLHNMGDHVTRLDRWEPELNEAIPNDERDTTMPAAMATTLRKLLTGELLTLASRQQLIDWMEADKVAGPLLRSALPAGWFIADKSGAGERGSRGIIAALGPDGKPSRIVVIYTTGSQATMDERNRQIAEIGASLIKHW

> <PDB ID(s) of Target Chain>
1ERM,1ERO,1ERQ,1ESU,1FQG,1JTD,1JVJ,1JWP,1JWV,1LHY,1LI9,1M40,1NXY,1NY0,1NYM,1NYY,1PZO,1PZP,1S0W,1XPB,1YT4,2V1Z,2V20,3CMZ,3DTM,3JYI,3P98,4DXB,4DXC,4GKU,4ZJ2,5AQ8,5HVI,5HW1,5HW5,5NPO,6B2N,7QLP,7QNK,7U6Q,8DE0

> <UniProt (SwissProt) Recommended Name of Target Chain>
Beta-lactamase TEM

> <UniProt (SwissProt) Entry Name of Target Chain>
BLAT_ECOLX

> <UniProt (SwissProt) Primary ID of Target Chain>
P62593

> <UniProt (SwissProt) Secondary ID(s) of Target Chain>
P00810 Q47313

> <UniProt (SwissProt) Alternative ID(s) of Target Chain>


> <UniProt (TrEMBL) Submitted Name of Target Chain>


> <UniProt (TrEMBL) Entry Name of Target Chain>


> <UniProt (TrEMBL) Primary ID of Target Chain>


> <UniProt (TrEMBL) Secondary ID(s) of Target Chain>


> <UniProt (TrEMBL) Alternative ID(s) of Target Chain>


$$$$
7
  Mrv0541 11181423542D          

 10 10  0  0  0  0            999 V2000
   -0.4062    2.6375    0.0000 C   0  0  0  0  0  0  0  0  0  0  0  0
   -1.1207    2.2250    0.0000 C   0  0  0  0  0  0  0  0  0  0  0  0
   -1.1207    1.4000    0.0000 C   0  0  0  0  0  0  0  0  0  0  0  0
   -0.4062    0.9875    0.0000 C   0  0  0  0  0  0  0  0  0  0  0  0
    0.3082    1.4000    0.0000 C   0  0  0  0  0  0  0  0  0  0  0  0
    0.3082    2.2250    0.0000 C   0  0  0  0  0  0  0  0  0  0  0  0
    1.0227    2.6375    0.0000 B   0  0  0  0  0  0  0  0  0  0  0  0
    1.0227    3.4625    0.0000 O   0  0  0  0  0  0  0  0  0  0  0  0
    1.7372    2.2250    0.0000 O   0  0  0  0  0  0  0  0  0  0  0  0
   -1.8352    0.9875    0.0000 F   0  0  0  0  0  0  0  0  0  0  0  0
  1  2  2  0  0  0  0
  1  6  1  0  0  0  0
  2  3  1  0  0  0  0
  3  4  2  0  0  0  0
  4  5  1  0  0  0  0
  5  6  2  0  0  0  0
  6  7  1  0  0  0  0
  7  8  1  0  0  0  0
  7  9  1  0  0  0  0
  3 10  1  0  0  0  0
M  END
> <From>
www.bindingDB.org

> <BindingDB Reactant_set_id>
50117252

> <Ligand InChI>
InChI=1S/C6H6BFO2/c8-6-3-1-5(2-4-6)7(9)10/h1-4,9-10H

> <Ligand InChI Key>
LBUNNMJLXWQQBY-UHFFFAOYSA-N

> <BindingDB MonomerID>
26128

> <BindingDB Ligand Name>
(4-fluorophenyl)boranediol::CHEMBL344890::Phenylboronic Acid, 7

> <Target Name>
Beta-lactamase

> <Target Source Organism According to Curator or DataSource>
Escherichia coli

> <Ki (nM)>
 6400

> <IC50 (nM)>


> <Kd (nM)>


> <EC50 (nM)>


> <kon (M-1-s-1)>


> <koff (s-1)>


> <pH>


> <Temp C>


> <Curation/DataSource>
ChEMBL

> <Article DOI>
10.1021/jm980343w

> <BindingDB Entry DOI>
10.7270/Q22N51FX

> <PMID>
9804697

> <PubChem AID>


> <Patent Number>


> <Authors>
Weston, GS; Blazquez, J; Baquero, F; Shoichet, BK

> <Institution>
Northwestern University Medical School

> <Link to Ligand in BindingDB>
http://www.bindingdb.org/bind/chemsearch/marvin/MolStructure.jsp?monomerid=26128

> <Link to Ligand-Target Pair in BindingDB>
http://www.bindingdb.org/jsp/dbsearch/PrimarySearch_ki.jsp?energyterm=kJ/mole&tag=pol&polymerid=4401&target=Beta-lactamase&column=ki&startPg=0&Increment=50&submit=Search

> <Link to Ligand-Target Pair in BindingDB>
http://www.bindingdb.org/jsp/dbsearch/PrimarySearch_ki.jsp?energyterm=kJ/mole&tag=r21&monomerid=26128&enzyme=Beta-lactamase&column=ki&startPg=0&Increment=50&submit=Search

> <Ligand HET ID in PDB>


> <PDB ID(s) for Ligand-Target Complex>


> <PubChem CID of Ligand>
285645

> <PubChem SID of Ligand>
56464565

> <ChEBI ID of Ligand>
48661

> <ChEMBL ID of Ligand>
CHEMBL344890

> <DrugBank ID of Ligand>


> <IUPHAR_GRAC ID of Ligand>


> <KEGG ID of Ligand>


> <ZINC ID of Ligand>


> <Number of Protein Chains in Target (bigger than 1 implies a multichain complex)>
1

> <BindingDB Target Chain Sequence>
MFKTTLCALLITASCSTFAAPQQINDIVHRTITPLIEQQKIPGMAVAVIYQGKPYYFTWGYADIAKKQPVTQQTLFELGSVSKTFTGVLGGDAIARGEIKLSDPTTKYWPELTAKQWNGITLLHLATYTAGGLPLQVPDEVKSSSDLLRFYQNWQPAWAPGTQRLYANSSIGLFGALAVKPSGLSFEQAMQTRVFQPLKLNHTWINVPPAEEKNYAWGYREGKAVHVSPGALDAEAYGVKSTIEDMARWVQSNLKPLDINEKTLQQGIQLAQSRYWQTGDMYQGLGWEMLDWPVNPDSIINGSDNKIALAARPVKAITPPTPAVRASWVHKTGATGGFGSYVAFIPEKELGIVMLANKNYPNPARVDAAWQILNALQ

> <PDB ID(s) of Target Chain>
1C3B,1FCO,1FSW,1FSY,1GA9,1IEL,1IEM,1KDS,1KDW,1KE0,1KE3,1KE4,1KVM,1L2S,1LL5,1LL9,1LLB,1MXO,1MY8,1XGI,1XGJ,2BLS,2HDQ,2HDR,2HDS,2HDU,2I72,2P9V,2PU2,2PU4,2R9W,2R9X,2RCX,3BLS,3BM6,3GQZ,3GR2,3GRJ,3GSG,3GTC,3GV9,3GVB,3O86,3O87,3O88,4E3I,4E3J,4E3K,4E3L,4E3M,4E3N,4E3O,4JXG,4JXS,4JXV,4JXW,4KG2,4KZ3,4KZ4,4KZ5,4KZ6,4KZ7,4KZ8,4KZ9,4KZA,4KZB,4LV0,4LV1,4LV2,4LV3,4OKP,4OLD,4OLG,6DPT,6DPX,6DPY,6DPZ,6T35,6T3D,6T5Y,6T7L,6TBW,6TPM,6WGQ,6YEN,6YEO,6YPD

> <UniProt (SwissProt) Recommended Name of Target Chain>
Beta-lactamase

> <UniProt (SwissProt) Entry Name of Target Chain>
AMPC_ECOLI

> <UniProt (SwissProt) Primary ID of Target Chain>
P00811

> <UniProt (SwissProt) Secondary ID(s) of Target Chain>
Q2M6F2

> <UniProt (SwissProt) Alternative ID(s) of Target Chain>


> <UniProt (TrEMBL) Submitted Name of Target Chain>


> <UniProt (TrEMBL) Entry Name of Target Chain>


> <UniProt (TrEMBL) Primary ID of Target Chain>


> <UniProt (TrEMBL) Secondary ID(s) of Target Chain>


> <UniProt (TrEMBL) Alternative ID(s) of Target Chain>


$$$$

  Mrv0541 11211411482D          

 13 13  0  0  0  0            999 V2000
    2.0900   -0.0168    0.0000 C   0  0  0  0  0  0  0  0  0  0  0  0
    1.2691   -0.0168    0.0000 C   0  0  0  0  0  0  0  0  0  0  0  0
    0.8586    0.6994    0.0000 C   0  0  0  0  0  0  0  0  0  0  0  0
    2.4921   -0.7413    0.0000 N   0  0  0  0  0  0  0  0  0  0  0  0
    3.7235   -1.4701    0.0000 B   0  0  0  0  0  0  0  0  0  0  0  0
    0.0377    0.7790    0.0000 S   0  0  0  0  0  0  0  0  0  0  0  0
    3.3214   -0.7456    0.0000 C   0  0  0  0  0  0  0  0  0  0  0  0
   -0.1340    1.5915    0.0000 C   0  0  0  0  0  0  0  0  0  0  0  0
    1.1937    1.4533    0.0000 C   0  0  0  0  0  0  0  0  0  0  0  0
    2.5047    0.6869    0.0000 O   0  0  0  0  0  0  0  0  0  0  0  0
    0.5780    2.0062    0.0000 C   0  0  0  0  0  0  0  0  0  0  0  0
    4.5528   -1.4743    0.0000 O   0  0  0  0  0  0  0  0  0  0  0  0
    3.3046   -2.1738    0.0000 O   0  0  0  0  0  0  0  0  0  0  0  0
  2  1  1  0  0  0  0
  3  2  1  0  0  0  0
  4  1  1  0  0  0  0
  5  7  1  0  0  0  0
  6  3  1  0  0  0  0
  7  4  1  0  0  0  0
  8  6  1  0  0  0  0
  9  3  2  0  0  0  0
 10  1  2  0  0  0  0
 11  9  1  0  0  0  0
 12  5  1  0  0  0  0
 13  5  1  0  0  0  0
  8 11  2  0  0  0  0
M  END
> <From>
www.bindingDB.org

> <BindingDB Reactant_set_id>
74799

> <Ligand InChI>
InChI=1S/C7H10BNO3S/c10-7(9-5-8(11)12)4-6-2-1-3-13-6/h1-3,11-12H,4-5H2,(H,9,10)

> <Ligand InChI Key>
VXAPSUDMBNWYNC-UHFFFAOYSA-N

> <BindingDB MonomerID>
50115621

> <BindingDB Ligand Name>
(2-(thiophen-2-yl)acetamido)methylboronic acid::Acylglycineboronic acid, 11::CHEMBL320049::N-2-THIOPHEN-2-YL-ACETAMIDE BORONIC ACID::N-dihydroxyBoranylmethyl-2-thiophen-2-yl-acetamide

> <Target Name>
Beta-lactamase

> <Target Source Organism According to Curator or DataSource>
Staphylococcus aureus

> <Ki (nM)>
 6.5e+3

> <IC50 (nM)>


> <Kd (nM)>


> <EC50 (nM)>


> <kon (M-1-s-1)>


> <koff (s-1)>


> <pH>
7

> <Temp C>


> <Curation/DataSource>
Curated from the literature by BindingDB

> <Article DOI>
10.1016/S1074-5521(00)00052-1

> <BindingDB Entry DOI>
10.7270/Q2CC0Z3R

> <PMID>
11182316

> <PubChem AID>
aid1799471

> <Patent Number>


> <Authors>
Caselli, E; Powers, RA; Blasczcak, LC; Wu, CY; Prati, F; Shoichet, BK

> <Institution>
Northwestern University

> <Link to Ligand in BindingDB>
http://www.bindingdb.org/bind/chemsearch/marvin/MolStructure.jsp?monomerid=50115621

> <Link to Ligand-Target Pair in BindingDB>
http://www.bindingdb.org/jsp/dbsearch/PrimarySearch_ki.jsp?energyterm=kJ/mole&tag=pol&polymerid=50000333&target=Beta-lactamase&column=ki&startPg=0&Increment=50&submit=Search

> <Link to Ligand-Target Pair in BindingDB>
http://www.bindingdb.org/jsp/dbsearch/PrimarySearch_ki.jsp?energyterm=kJ/mole&tag=r21&monomerid=50115621&enzyme=Beta-lactamase&column=ki&startPg=0&Increment=50&submit=Search

> <Ligand HET ID in PDB>
CTB

> <PDB ID(s) for Ligand-Target Complex>
1FSW

> <PubChem CID of Ligand>
2671

> <PubChem SID of Ligand>
104009510

> <ChEBI ID of Ligand>


> <ChEMBL ID of Ligand>
CHEMBL320049

> <DrugBank ID of Ligand>
DB02094

> <IUPHAR_GRAC ID of Ligand>


> <KEGG ID of Ligand>


> <ZINC ID of Ligand>


> <Number of Protein Chains in Target (bigger than 1 implies a multichain complex)>
1

> <BindingDB Target Chain Sequence>
MKKLIFLIVIALVLSACNSNSSHAKELNDLEKKYNAHIGVYALDTKSGKEVKFNSDKRFAYASTSKAINSAILLEQVPYNKLNKKVHINKDDIVAYSPILEKYVGKDITLKALIEASMTYSDNTANNKIIKEIGGIKKVKQRLKELGDKVTNPVRYEIELNYYSPKSKKDTSTPAAFGKTLNKLIANGKLSKENKKFLLDLMLNNKSGDTLIKDGVPKDYKVADKSGQAITYASRNDVAFVYPKGQSEPIVLVIFTNKDNKSDKPNDKLISETAKSVMKEF

> <PDB ID(s) of Target Chain>
1OME,3BLM

> <UniProt (SwissProt) Recommended Name of Target Chain>
Beta-lactamase

> <UniProt (SwissProt) Entry Name of Target Chain>
BLAC_STAAU

> <UniProt (SwissProt) Primary ID of Target Chain>
P00807

> <UniProt (SwissProt) Secondary ID(s) of Target Chain>


> <UniProt (SwissProt) Alternative ID(s) of Target Chain>


> <UniProt (TrEMBL) Submitted Name of Target Chain>


> <UniProt (TrEMBL) Entry Name of Target Chain>


> <UniProt (TrEMBL) Primary ID of Target Chain>


> <UniProt (TrEMBL) Secondary ID(s) of Target Chain>


> <UniProt (TrEMBL) Alternative ID(s) of Target Chain>


$$$$

  Mrv0541 11211411482D          

 20 21  0  0  0  0            999 V2000
    0.7057   -0.6305    0.0000 C   0  0  0  0  0  0  0  0  0  0  0  0
    1.3821   -1.1190    0.0000 C   0  0  0  0  0  0  0  0  0  0  0  0
    0.0418   -1.1190    0.0000 N   0  0  0  0  0  0  0  0  0  0  0  0
    0.7057    0.1962    0.0000 C   0  0  0  0  0  0  0  0  0  0  0  0
    2.1837   -0.9437    0.0000 C   0  0  0  0  0  0  0  0  0  0  0  0
    0.3006   -1.9081    0.0000 O   0  0  0  0  0  0  0  0  0  0  0  0
    1.1273   -1.9039    0.0000 C   0  0  0  0  0  0  0  0  0  0  0  0
    2.7349   -1.5574    0.0000 N   0  0  0  0  0  0  0  0  0  0  0  0
    4.0877   -2.0084    0.0000 B   0  0  0  0  0  0  0  0  0  0  0  0
    3.5365   -1.3904    0.0000 C   0  0  0  0  0  0  0  0  0  0  0  0
   -0.0083    0.6096    0.0000 C   0  0  0  0  0  0  0  0  0  0  0  0
    2.4342   -0.1545    0.0000 O   0  0  0  0  0  0  0  0  0  0  0  0
    4.8851   -1.7912    0.0000 O   0  0  0  0  0  0  0  0  0  0  0  0
    3.8246   -2.7850    0.0000 O   0  0  0  0  0  0  0  0  0  0  0  0
   -0.7265    0.1962    0.0000 Cl  0  0  0  0  0  0  0  0  0  0  0  0
    1.4196    0.6096    0.0000 C   0  0  0  0  0  0  0  0  0  0  0  0
    1.6702   -2.5177    0.0000 C   0  0  0  0  0  0  0  0  0  0  0  0
   -0.0083    1.4363    0.0000 C   0  0  0  0  0  0  0  0  0  0  0  0
    1.4196    1.4363    0.0000 C   0  0  0  0  0  0  0  0  0  0  0  0
    0.7057    1.8496    0.0000 C   0  0  0  0  0  0  0  0  0  0  0  0
  2  1  1  0  0  0  0
  3  1  2  0  0  0  0
  4  1  1  0  0  0  0
  5  2  1  0  0  0  0
  6  3  1  0  0  0  0
  7  2  2  0  0  0  0
  8  5  1  0  0  0  0
  9 10  1  0  0  0  0
 10  8  1  0  0  0  0
 11  4  2  0  0  0  0
 12  5  2  0  0  0  0
 13  9  1  0  0  0  0
 14  9  1  0  0  0  0
 15 11  1  0  0  0  0
 16  4  1  0  0  0  0
 17  7  1  0  0  0  0
 18 11  1  0  0  0  0
 19 16  2  0  0  0  0
 20 19  1  0  0  0  0
  7  6  1  0  0  0  0
 18 20  2  0  0  0  0
M  END
> <From>
www.bindingDB.org

> <BindingDB Reactant_set_id>
74798

> <Ligand InChI>
InChI=1S/C12H12BClN2O4/c1-7-10(12(17)15-6-13(18)19)11(16-20-7)8-4-2-3-5-9(8)14/h2-5,18-19H,6H2,1H3,(H,15,17)

> <Ligand InChI Key>
LSXNXXCBOPILJR-UHFFFAOYSA-N

> <BindingDB MonomerID>
50115620

> <BindingDB Ligand Name>
3-(2-Chloro-phenyl)-5-methyl-2,3-dihydro-isoxazole-4-carboxylic acid dihydroxyboranylmethyl-amide::Acylglycineboronic acid, 9::CHEMBL324688::N-[5-METHYL-3-O-TOLYL-ISOXAZOLE-4-CARBOXYLIC ACID AMIDE] BORONIC ACID

> <Target Name>
Beta-lactamase

> <Target Source Organism According to Curator or DataSource>
Staphylococcus aureus

> <Ki (nM)>
 6.8e+3

> <IC50 (nM)>


> <Kd (nM)>


> <EC50 (nM)>


> <kon (M-1-s-1)>


> <koff (s-1)>


> <pH>
7

> <Temp C>


> <Curation/DataSource>
Curated from the literature by BindingDB

> <Article DOI>
10.1016/S1074-5521(00)00052-1

> <BindingDB Entry DOI>
10.7270/Q2CC0Z3R

> <PMID>
11182316

> <PubChem AID>
aid1799471

> <Patent Number>


> <Authors>
Caselli, E; Powers, RA; Blasczcak, LC; Wu, CY; Prati, F; Shoichet, BK

> <Institution>
Northwestern University

> <Link to Ligand in BindingDB>
http://www.bindingdb.org/bind/chemsearch/marvin/MolStructure.jsp?monomerid=50115620

> <Link to Ligand-Target Pair in BindingDB>
http://www.bindingdb.org/jsp/dbsearch/PrimarySearch_ki.jsp?energyterm=kJ/mole&tag=pol&polymerid=50000333&target=Beta-lactamase&column=ki&startPg=0&Increment=50&submit=Search

> <Link to Ligand-Target Pair in BindingDB>
http://www.bindingdb.org/jsp/dbsearch/PrimarySearch_ki.jsp?energyterm=kJ/mole&tag=r21&monomerid=50115620&enzyme=Beta-lactamase&column=ki&startPg=0&Increment=50&submit=Search

> <Ligand HET ID in PDB>
105

> <PDB ID(s) for Ligand-Target Complex>
1JWZ,1NYY,1FSY

> <PubChem CID of Ligand>
2815

> <PubChem SID of Ligand>
104009509

> <ChEBI ID of Ligand>


> <ChEMBL ID of Ligand>
CHEMBL324688

> <DrugBank ID of Ligand>


> <IUPHAR_GRAC ID of Ligand>


> <KEGG ID of Ligand>


> <ZINC ID of Ligand>


> <Number of Protein Chains in Target (bigger than 1 implies a multichain complex)>
1

> <BindingDB Target Chain Sequence>
MKKLIFLIVIALVLSACNSNSSHAKELNDLEKKYNAHIGVYALDTKSGKEVKFNSDKRFAYASTSKAINSAILLEQVPYNKLNKKVHINKDDIVAYSPILEKYVGKDITLKALIEASMTYSDNTANNKIIKEIGGIKKVKQRLKELGDKVTNPVRYEIELNYYSPKSKKDTSTPAAFGKTLNKLIANGKLSKENKKFLLDLMLNNKSGDTLIKDGVPKDYKVADKSGQAITYASRNDVAFVYPKGQSEPIVLVIFTNKDNKSDKPNDKLISETAKSVMKEF

> <PDB ID(s) of Target Chain>
1OME,3BLM

> <UniProt (SwissProt) Recommended Name of Target Chain>
Beta-lactamase

> <UniProt (SwissProt) Entry Name of Target Chain>
BLAC_STAAU

> <UniProt (SwissProt) Primary ID of Target Chain>
P00807

> <UniProt (SwissProt) Secondary ID(s) of Target Chain>


> <UniProt (SwissProt) Alternative ID(s) of Target Chain>


> <UniProt (TrEMBL) Submitted Name of Target Chain>


> <UniProt (TrEMBL) Entry Name of Target Chain>


> <UniProt (TrEMBL) Primary ID of Target Chain>


> <UniProt (TrEMBL) Secondary ID(s) of Target Chain>


> <UniProt (TrEMBL) Alternative ID(s) of Target Chain>


$$$$
 
     RDKit          2D

 19 20  0  0  0  0  0  0  0  0999 V2000
   23.0356  -23.9504    0.0000 C   0  0  0  0  0  0  0  0  0  0  0  0
   23.7515  -23.5376    0.0000 C   0  0  0  0  0  0  0  0  0  0  0  0
   24.4634  -23.9504    0.0000 N   0  0  0  0  0  0  0  0  0  0  0  0
   25.1793  -23.5376    0.0000 C   0  0  0  0  0  0  0  0  0  0  0  0
   25.8953  -23.9504    0.0000 B   0  0  0  0  0  0  0  0  0  0  0  0
   26.6071  -23.5376    0.0000 O   0  0  0  0  0  0  0  0  0  0  0  0
   25.8953  -24.7758    0.0000 O   0  0  0  0  0  0  0  0  0  0  0  0
   25.1793  -22.7163    0.0000 C   0  0  0  0  0  0  0  0  0  0  0  0
   25.8912  -22.3077    0.0000 C   0  0  0  0  0  0  0  0  0  0  0  0
   26.6360  -22.6344    0.0000 C   0  0  0  0  0  0  0  0  0  0  0  0
   27.1870  -22.0271    0.0000 O   0  0  0  0  0  0  0  0  0  0  0  0
   26.7748  -21.3177    0.0000 C   0  0  0  0  0  0  0  0  0  0  0  0
   25.9749  -21.4852    0.0000 C   0  0  0  0  0  0  0  0  0  0  0  0
   25.4288  -20.8808    0.0000 C   0  0  0  0  0  0  0  0  0  0  0  0
   25.6764  -20.1054    0.0000 C   0  0  0  0  0  0  0  0  0  0  0  0
   26.4785  -19.9333    0.0000 C   0  0  0  0  0  0  0  0  0  0  0  0
   27.0261  -20.5421    0.0000 C   0  0  0  0  0  0  0  0  0  0  0  0
   23.7515  -22.7122    0.0000 O   0  0  0  0  0  0  0  0  0  0  0  0
   22.3248  -23.5359    0.0000 S   0  0  0  0  0  0  0  0  0  0  0  0
  1  2  1  0
  2  3  1  0
  3  4  1  0
  4  5  1  6
  5  6  1  0
  5  7  1  0
  4  8  1  0
  8  9  1  0
  9 10  2  0
 10 11  1  0
 11 12  1  0
 13 12  2  0
 13  9  1  0
 14 13  1  0
 15 14  2  0
 16 15  1  0
 17 16  2  0
 12 17  1  0
  2 18  2  0
  1 19  1  0
M  END
> <From>
www.bindingDB.org

> <BindingDB Reactant_set_id>
51270509

> <Ligand InChI>
InChI=1S/C12H14BNO4S/c15-12(7-19)14-11(13(16)17)5-8-6-18-10-4-2-1-3-9(8)10/h1-4,6,11,16-17,19H,5,7H2,(H,14,15)/t11-/m1/s1

> <Ligand InChI Key>
GJIFDHQPJZOHPL-LLVKDONJSA-N

> <BindingDB MonomerID>
50518882

> <BindingDB Ligand Name>
CHEMBL4471138

> <Target Name>
Beta-lactamase TEM

> <Target Source Organism According to Curator or DataSource>


> <Ki (nM)>
 6840

> <IC50 (nM)>


> <Kd (nM)>


> <EC50 (nM)>


> <kon (M-1-s-1)>


> <koff (s-1)>


> <pH>


> <Temp C>


> <Curation/DataSource>
ChEMBL

> <Article DOI>
10.1021/acs.jmedchem.9b00735

> <BindingDB Entry DOI>
10.7270/Q22R3W2M

> <PMID>
31269398

> <PubChem AID>


> <Patent Number>


> <Authors>
Wang, YL; Liu, S; Yu, ZJ; Lei, Y; Huang, MY; Yan, YH; Ma, Q; Zheng, Y; Deng, H; Sun, Y; Wu, C; Yu, Y; Chen, Q; Wang, Z; Wu, Y; Li, GB

> <Institution>
Sichuan University

> <Link to Ligand in BindingDB>
http://www.bindingdb.org/bind/chemsearch/marvin/MolStructure.jsp?monomerid=50518882

> <Link to Ligand-Target Pair in BindingDB>
http://www.bindingdb.org/jsp/dbsearch/PrimarySearch_ki.jsp?energyterm=kJ/mole&tag=pol&polymerid=7704&target=Beta-lactamase+TEM&column=ki&startPg=0&Increment=50&submit=Search

> <Link to Ligand-Target Pair in BindingDB>
http://www.bindingdb.org/jsp/dbsearch/PrimarySearch_ki.jsp?energyterm=kJ/mole&tag=r21&monomerid=50518882&enzyme=Beta-lactamase+TEM&column=ki&startPg=0&Increment=50&submit=Search

> <Ligand HET ID in PDB>


> <PDB ID(s) for Ligand-Target Complex>


> <PubChem CID of Ligand>
155534856

> <PubChem SID of Ligand>
440727464

> <ChEBI ID of Ligand>


> <ChEMBL ID of Ligand>


> <DrugBank ID of Ligand>


> <IUPHAR_GRAC ID of Ligand>


> <KEGG ID of Ligand>


> <ZINC ID of Ligand>


> <Number of Protein Chains in Target (bigger than 1 implies a multichain complex)>
1

> <BindingDB Target Chain Sequence>
MSIQHFRVALIPFFAAFCLPVFAHPETLVKVKDAEDQLGARVGYIELDLNSGKILESFRPEERFPMMSTFKVLLCGAVLSRVDAGQEQLGRRIHYSQNDLVEYSPVTEKHLTDGMTVRELCSAAITMSDNTAANLLLTTIGGPKELTAFLHNMGDHVTRLDRWEPELNEAIPNDERDTTMPAAMATTLRKLLTGELLTLASRQQLIDWMEADKVAGPLLRSALPAGWFIADKSGAGERGSRGIIAALGPDGKPSRIVVIYTTGSQATMDERNRQIAEIGASLIKHW

> <PDB ID(s) of Target Chain>
1ERM,1ERO,1ERQ,1ESU,1FQG,1JTD,1JVJ,1JWP,1JWV,1LHY,1LI9,1M40,1NXY,1NY0,1NYM,1NYY,1PZO,1PZP,1S0W,1XPB,1YT4,2V1Z,2V20,3CMZ,3DTM,3JYI,3P98,4DXB,4DXC,4GKU,4ZJ2,5AQ8,5HVI,5HW1,5HW5,5NPO,6B2N,7QLP,7QNK,7U6Q,8DE0

> <UniProt (SwissProt) Recommended Name of Target Chain>
Beta-lactamase TEM

> <UniProt (SwissProt) Entry Name of Target Chain>
BLAT_ECOLX

> <UniProt (SwissProt) Primary ID of Target Chain>
P62593

> <UniProt (SwissProt) Secondary ID(s) of Target Chain>
P00810 Q47313

> <UniProt (SwissProt) Alternative ID(s) of Target Chain>


> <UniProt (TrEMBL) Submitted Name of Target Chain>


> <UniProt (TrEMBL) Entry Name of Target Chain>


> <UniProt (TrEMBL) Primary ID of Target Chain>


> <UniProt (TrEMBL) Secondary ID(s) of Target Chain>


> <UniProt (TrEMBL) Alternative ID(s) of Target Chain>


$$$$

  Mrv0541 11231401522D          

 17 19  0  0  0  0            999 V2000
    1.7061   -3.8311    0.0000 C   0  0  0  0  0  0  0  0  0  0  0  0
    2.1185   -3.1184    0.0000 C   0  0  0  0  0  0  0  0  0  0  0  0
    2.9435   -3.1217    0.0000 C   0  0  0  0  0  0  0  0  0  0  0  0
    2.1185   -4.5472    0.0000 C   0  0  0  0  0  0  0  0  0  0  0  0
    0.8811   -3.8246    0.0000 B   0  0  0  0  0  0  0  0  0  0  0  0
    3.3593   -3.8311    0.0000 C   0  0  0  0  0  0  0  0  0  0  0  0
    2.9501   -4.5472    0.0000 C   0  0  0  0  0  0  0  0  0  0  0  0
    0.4686   -3.1085    0.0000 O   0  0  0  0  0  0  0  0  0  0  0  0
    0.4587   -4.5373    0.0000 O   0  0  0  0  0  0  0  0  0  0  0  0
    1.7061   -2.3990    0.0000 C   0  0  0  0  0  0  0  0  0  0  0  0
    3.3593   -2.4155    0.0000 C   0  0  0  0  0  0  0  0  0  0  0  0
    4.1810   -3.8246    0.0000 C   0  0  0  0  0  0  0  0  0  0  0  0
    3.3593   -5.2567    0.0000 C   0  0  0  0  0  0  0  0  0  0  0  0
    2.1284   -1.6928    0.0000 C   0  0  0  0  0  0  0  0  0  0  0  0
    2.9534   -1.6962    0.0000 C   0  0  0  0  0  0  0  0  0  0  0  0
    4.5967   -4.5373    0.0000 C   0  0  0  0  0  0  0  0  0  0  0  0
    4.1875   -5.2501    0.0000 C   0  0  0  0  0  0  0  0  0  0  0  0
  2  1  1  0  0  0  0
  3  2  1  0  0  0  0
  4  1  2  0  0  0  0
  5  1  1  0  0  0  0
  6  7  1  0  0  0  0
  7  4  1  0  0  0  0
  8  5  1  0  0  0  0
  9  5  1  0  0  0  0
 10  2  2  0  0  0  0
 11  3  2  0  0  0  0
 12  6  2  0  0  0  0
 13  7  2  0  0  0  0
 14 10  1  0  0  0  0
 15 14  2  0  0  0  0
 16 17  2  0  0  0  0
 17 13  1  0  0  0  0
  6  3  1  0  0  0  0
 15 11  1  0  0  0  0
 12 16  1  0  0  0  0
M  END
> <From>
www.bindingDB.org

> <BindingDB Reactant_set_id>
50117304

> <Ligand InChI>
InChI=1S/C14H11BO2/c16-15(17)14-9-10-5-1-2-6-11(10)12-7-3-4-8-13(12)14/h1-9,16-17H

> <Ligand InChI Key>
JCDAUYWOHOLVMH-UHFFFAOYSA-N

> <BindingDB MonomerID>
50067909

> <BindingDB Ligand Name>
9-phenanthrene boronic acid::CHEMBL140467

> <Target Name>
Beta-lactamase

> <Target Source Organism According to Curator or DataSource>
Escherichia coli

> <Ki (nM)>
 7000

> <IC50 (nM)>


> <Kd (nM)>


> <EC50 (nM)>


> <kon (M-1-s-1)>


> <koff (s-1)>


> <pH>


> <Temp C>


> <Curation/DataSource>
ChEMBL

> <Article DOI>
10.1021/jm980343w

> <BindingDB Entry DOI>
10.7270/Q22N51FX

> <PMID>
9804697

> <PubChem AID>


> <Patent Number>


> <Authors>
Weston, GS; Blazquez, J; Baquero, F; Shoichet, BK

> <Institution>
Northwestern University Medical School

> <Link to Ligand in BindingDB>
http://www.bindingdb.org/bind/chemsearch/marvin/MolStructure.jsp?monomerid=50067909

> <Link to Ligand-Target Pair in BindingDB>
http://www.bindingdb.org/jsp/dbsearch/PrimarySearch_ki.jsp?energyterm=kJ/mole&tag=pol&polymerid=4401&target=Beta-lactamase&column=ki&startPg=0&Increment=50&submit=Search

> <Link to Ligand-Target Pair in BindingDB>
http://www.bindingdb.org/jsp/dbsearch/PrimarySearch_ki.jsp?energyterm=kJ/mole&tag=r21&monomerid=50067909&enzyme=Beta-lactamase&column=ki&startPg=0&Increment=50&submit=Search

> <Ligand HET ID in PDB>


> <PDB ID(s) for Ligand-Target Complex>


> <PubChem CID of Ligand>
11775704

> <PubChem SID of Ligand>
103962335

> <ChEBI ID of Ligand>


> <ChEMBL ID of Ligand>
CHEMBL140467

> <DrugBank ID of Ligand>


> <IUPHAR_GRAC ID of Ligand>


> <KEGG ID of Ligand>


> <ZINC ID of Ligand>


> <Number of Protein Chains in Target (bigger than 1 implies a multichain complex)>
1

> <BindingDB Target Chain Sequence>
MFKTTLCALLITASCSTFAAPQQINDIVHRTITPLIEQQKIPGMAVAVIYQGKPYYFTWGYADIAKKQPVTQQTLFELGSVSKTFTGVLGGDAIARGEIKLSDPTTKYWPELTAKQWNGITLLHLATYTAGGLPLQVPDEVKSSSDLLRFYQNWQPAWAPGTQRLYANSSIGLFGALAVKPSGLSFEQAMQTRVFQPLKLNHTWINVPPAEEKNYAWGYREGKAVHVSPGALDAEAYGVKSTIEDMARWVQSNLKPLDINEKTLQQGIQLAQSRYWQTGDMYQGLGWEMLDWPVNPDSIINGSDNKIALAARPVKAITPPTPAVRASWVHKTGATGGFGSYVAFIPEKELGIVMLANKNYPNPARVDAAWQILNALQ

> <PDB ID(s) of Target Chain>
1C3B,1FCO,1FSW,1FSY,1GA9,1IEL,1IEM,1KDS,1KDW,1KE0,1KE3,1KE4,1KVM,1L2S,1LL5,1LL9,1LLB,1MXO,1MY8,1XGI,1XGJ,2BLS,2HDQ,2HDR,2HDS,2HDU,2I72,2P9V,2PU2,2PU4,2R9W,2R9X,2RCX,3BLS,3BM6,3GQZ,3GR2,3GRJ,3GSG,3GTC,3GV9,3GVB,3O86,3O87,3O88,4E3I,4E3J,4E3K,4E3L,4E3M,4E3N,4E3O,4JXG,4JXS,4JXV,4JXW,4KG2,4KZ3,4KZ4,4KZ5,4KZ6,4KZ7,4KZ8,4KZ9,4KZA,4KZB,4LV0,4LV1,4LV2,4LV3,4OKP,4OLD,4OLG,6DPT,6DPX,6DPY,6DPZ,6T35,6T3D,6T5Y,6T7L,6TBW,6TPM,6WGQ,6YEN,6YEO,6YPD

> <UniProt (SwissProt) Recommended Name of Target Chain>
Beta-lactamase

> <UniProt (SwissProt) Entry Name of Target Chain>
AMPC_ECOLI

> <UniProt (SwissProt) Primary ID of Target Chain>
P00811

> <UniProt (SwissProt) Secondary ID(s) of Target Chain>
Q2M6F2

> <UniProt (SwissProt) Alternative ID(s) of Target Chain>


> <UniProt (TrEMBL) Submitted Name of Target Chain>


> <UniProt (TrEMBL) Entry Name of Target Chain>


> <UniProt (TrEMBL) Primary ID of Target Chain>


> <UniProt (TrEMBL) Secondary ID(s) of Target Chain>


> <UniProt (TrEMBL) Alternative ID(s) of Target Chain>


$$$$

  Mrv0541 11191401012D          

 14 14  0  0  0  0            999 V2000
   -0.7396    1.4778    0.0000 C   0  0  0  0  0  0  0  0  0  0  0  0
   -1.5646    1.4778    0.0000 C   0  0  0  0  0  0  0  0  0  0  0  0
   -1.9771    2.1922    0.0000 C   0  0  0  0  0  0  0  0  0  0  0  0
   -1.5646    2.9067    0.0000 C   0  0  0  0  0  0  0  0  0  0  0  0
   -0.7396    2.9067    0.0000 C   0  0  0  0  0  0  0  0  0  0  0  0
   -0.3271    2.1922    0.0000 C   0  0  0  0  0  0  0  0  0  0  0  0
   -1.9771    3.6212    0.0000 B   0  0  0  0  0  0  0  0  0  0  0  0
   -2.8021    3.6212    0.0000 O   0  0  0  0  0  0  0  0  0  0  0  0
   -1.5646    4.3356    0.0000 O   0  0  0  0  0  0  0  0  0  0  0  0
    0.4979    2.1922    0.0000 N   0  0  0  0  0  0  0  0  0  0  0  0
    0.9104    1.4778    0.0000 C   0  0  0  0  0  0  0  0  0  0  0  0
    0.4979    0.7633    0.0000 O   0  0  0  0  0  0  0  0  0  0  0  0
    1.6249    1.0653    0.0000 C   0  0  0  0  0  0  0  0  0  0  0  0
    1.6249    0.2403    0.0000 Cl  0  0  0  0  0  0  0  0  0  0  0  0
  1  2  2  0  0  0  0
  2  3  1  0  0  0  0
  3  4  2  0  0  0  0
  4  5  1  0  0  0  0
  5  6  2  0  0  0  0
  1  6  1  0  0  0  0
  4  7  1  0  0  0  0
  7  8  1  0  0  0  0
  7  9  1  0  0  0  0
  6 10  1  0  0  0  0
 10 11  1  0  0  0  0
 11 12  2  0  0  0  0
 11 13  1  0  0  0  0
 13 14  1  0  0  0  0
M  END
> <From>
www.bindingDB.org

> <BindingDB Reactant_set_id>
74819

> <Ligand InChI>
InChI=1S/C8H9BClNO3/c10-5-8(12)11-7-3-1-2-6(4-7)9(13)14/h1-4,13-14H,5H2,(H,11,12)

> <Ligand InChI Key>
DELLZUVVNCCJSW-UHFFFAOYSA-N

> <BindingDB MonomerID>
39833

> <BindingDB Ligand Name>
Amide and sulfonamide derivatives, 17

> <Target Name>
Beta-lactamase

> <Target Source Organism According to Curator or DataSource>
Escherichia coli

> <Ki (nM)>
 7.2e+3

> <IC50 (nM)>


> <Kd (nM)>


> <EC50 (nM)>


> <kon (M-1-s-1)>


> <koff (s-1)>


> <pH>
7

> <Temp C>


> <Curation/DataSource>
Curated from the literature by BindingDB

> <Article DOI>
10.1016/S1074-5521(01)00034-5

> <BindingDB Entry DOI>
10.7270/Q27M06BZ

> <PMID>
11410378

> <PubChem AID>
aid1799472

> <Patent Number>


> <Authors>
Tondi, D; Powers, RA; Caselli, E; Negri, MC; Bl&aacute;zquez, J; Costi, MP; Shoichet, BK

> <Institution>
Northwestern University

> <Link to Ligand in BindingDB>
http://www.bindingdb.org/bind/chemsearch/marvin/MolStructure.jsp?monomerid=39833

> <Link to Ligand-Target Pair in BindingDB>
http://www.bindingdb.org/jsp/dbsearch/PrimarySearch_ki.jsp?energyterm=kJ/mole&tag=pol&polymerid=4401&target=Beta-lactamase&column=ki&startPg=0&Increment=50&submit=Search

> <Link to Ligand-Target Pair in BindingDB>
http://www.bindingdb.org/jsp/dbsearch/PrimarySearch_ki.jsp?energyterm=kJ/mole&tag=r21&monomerid=39833&enzyme=Beta-lactamase&column=ki&startPg=0&Increment=50&submit=Search

> <Ligand HET ID in PDB>


> <PDB ID(s) for Ligand-Target Complex>


> <PubChem CID of Ligand>
19048510

> <PubChem SID of Ligand>
123080141

> <ChEBI ID of Ligand>


> <ChEMBL ID of Ligand>


> <DrugBank ID of Ligand>


> <IUPHAR_GRAC ID of Ligand>


> <KEGG ID of Ligand>


> <ZINC ID of Ligand>


> <Number of Protein Chains in Target (bigger than 1 implies a multichain complex)>
1

> <BindingDB Target Chain Sequence>
MFKTTLCALLITASCSTFAAPQQINDIVHRTITPLIEQQKIPGMAVAVIYQGKPYYFTWGYADIAKKQPVTQQTLFELGSVSKTFTGVLGGDAIARGEIKLSDPTTKYWPELTAKQWNGITLLHLATYTAGGLPLQVPDEVKSSSDLLRFYQNWQPAWAPGTQRLYANSSIGLFGALAVKPSGLSFEQAMQTRVFQPLKLNHTWINVPPAEEKNYAWGYREGKAVHVSPGALDAEAYGVKSTIEDMARWVQSNLKPLDINEKTLQQGIQLAQSRYWQTGDMYQGLGWEMLDWPVNPDSIINGSDNKIALAARPVKAITPPTPAVRASWVHKTGATGGFGSYVAFIPEKELGIVMLANKNYPNPARVDAAWQILNALQ

> <PDB ID(s) of Target Chain>
1C3B,1FCO,1FSW,1FSY,1GA9,1IEL,1IEM,1KDS,1KDW,1KE0,1KE3,1KE4,1KVM,1L2S,1LL5,1LL9,1LLB,1MXO,1MY8,1XGI,1XGJ,2BLS,2HDQ,2HDR,2HDS,2HDU,2I72,2P9V,2PU2,2PU4,2R9W,2R9X,2RCX,3BLS,3BM6,3GQZ,3GR2,3GRJ,3GSG,3GTC,3GV9,3GVB,3O86,3O87,3O88,4E3I,4E3J,4E3K,4E3L,4E3M,4E3N,4E3O,4JXG,4JXS,4JXV,4JXW,4KG2,4KZ3,4KZ4,4KZ5,4KZ6,4KZ7,4KZ8,4KZ9,4KZA,4KZB,4LV0,4LV1,4LV2,4LV3,4OKP,4OLD,4OLG,6DPT,6DPX,6DPY,6DPZ,6T35,6T3D,6T5Y,6T7L,6TBW,6TPM,6WGQ,6YEN,6YEO,6YPD

> <UniProt (SwissProt) Recommended Name of Target Chain>
Beta-lactamase

> <UniProt (SwissProt) Entry Name of Target Chain>
AMPC_ECOLI

> <UniProt (SwissProt) Primary ID of Target Chain>
P00811

> <UniProt (SwissProt) Secondary ID(s) of Target Chain>
Q2M6F2

> <UniProt (SwissProt) Alternative ID(s) of Target Chain>


> <UniProt (TrEMBL) Submitted Name of Target Chain>


> <UniProt (TrEMBL) Entry Name of Target Chain>


> <UniProt (TrEMBL) Primary ID of Target Chain>


> <UniProt (TrEMBL) Secondary ID(s) of Target Chain>


> <UniProt (TrEMBL) Alternative ID(s) of Target Chain>


$$$$

  Mrv0541 11231414582D          

 18 20  0  0  0  0            999 V2000
   -1.1725   -2.8870    0.0000 C   0  0  0  0  0  0  0  0  0  0  0  0
   -1.1736   -3.7141    0.0000 C   0  0  0  0  0  0  0  0  0  0  0  0
   -0.4593   -4.1269    0.0000 C   0  0  0  0  0  0  0  0  0  0  0  0
   -0.4610   -2.4743    0.0000 C   0  0  0  0  0  0  0  0  0  0  0  0
    0.2536   -2.8836    0.0000 C   0  0  0  0  0  0  0  0  0  0  0  0
    0.2537   -3.7096    0.0000 C   0  0  0  0  0  0  0  0  0  0  0  0
    1.0393   -3.9648    0.0000 C   0  0  0  0  0  0  0  0  0  0  0  0
    1.5248   -3.2965    0.0000 O   0  0  0  0  0  0  0  0  0  0  0  0
    1.0391   -2.6284    0.0000 B   0  0  0  0  0  0  0  0  0  0  0  0
    1.2940   -1.8438    0.0000 O   0  0  0  0  0  0  0  0  0  0  0  0
   -1.8871   -2.4748    0.0000 C   0  0  0  0  0  0  0  0  0  0  0  0
   -2.6012   -2.8875    0.0000 C   0  0  0  0  0  0  0  0  0  0  0  0
   -3.3138   -2.4711    0.0000 C   0  0  0  0  0  0  0  0  0  0  0  0
   -4.0275   -2.8831    0.0000 C   0  0  0  0  0  0  0  0  0  0  0  0
   -4.0277   -3.7088    0.0000 C   0  0  0  0  0  0  0  0  0  0  0  0
   -3.3081   -4.1208    0.0000 C   0  0  0  0  0  0  0  0  0  0  0  0
   -2.5974   -3.7064    0.0000 C   0  0  0  0  0  0  0  0  0  0  0  0
   -1.8873   -1.6500    0.0000 O   0  0  0  0  0  0  0  0  0  0  0  0
  8  9  1  0  0  0  0
  9  5  1  0  0  0  0
  4  1  2  0  0  0  0
  9 10  1  0  0  0  0
  5  6  2  0  0  0  0
  1 11  1  0  0  0  0
 11 12  1  0  0  0  0
  2  3  2  0  0  0  0
 12 13  2  0  0  0  0
  3  6  1  0  0  0  0
 13 14  1  0  0  0  0
  1  2  1  0  0  0  0
 14 15  2  0  0  0  0
  5  4  1  0  0  0  0
 15 16  1  0  0  0  0
  6  7  1  0  0  0  0
 16 17  2  0  0  0  0
 17 12  1  0  0  0  0
  7  8  1  0  0  0  0
 11 18  1  0  0  0  0
M  END
> <From>
www.bindingDB.org

> <BindingDB Reactant_set_id>
50629861

> <Ligand InChI>
InChI=1S/C14H13BO3/c16-14(10-4-2-1-3-5-10)11-6-7-12-9-18-15(17)13(12)8-11/h1-8,14,16-17H,9H2

> <Ligand InChI Key>
MKIGPENLEQKNLT-UHFFFAOYSA-N

> <BindingDB MonomerID>
50339850

> <BindingDB Ligand Name>
6-(hydroxy(phenyl)methyl)benzo[c][1,2]oxaborol-1(3H)-ol::CHEMBL1761095

> <Target Name>
Beta-lactamase

> <Target Source Organism According to Curator or DataSource>
Enterobacter cloacae

> <Ki (nM)>
 7280

> <IC50 (nM)>


> <Kd (nM)>


> <EC50 (nM)>


> <kon (M-1-s-1)>


> <koff (s-1)>


> <pH>


> <Temp C>


> <Curation/DataSource>
ChEMBL

> <Article DOI>
10.1016/j.bmcl.2011.02.024

> <BindingDB Entry DOI>
10.7270/Q2G44QK5

> <PMID>
21392987

> <PubChem AID>


> <Patent Number>


> <Authors>
Xia, Y; Cao, K; Zhou, Y; Alley, MR; Rock, F; Mohan, M; Meewan, M; Baker, SJ; Lux, S; Ding, CZ; Jia, G; Kully, M; Plattner, JJ

> <Institution>
Anacor Pharmaceuticals Inc

> <Link to Ligand in BindingDB>
http://www.bindingdb.org/bind/chemsearch/marvin/MolStructure.jsp?monomerid=50339850

> <Link to Ligand-Target Pair in BindingDB>
http://www.bindingdb.org/jsp/dbsearch/PrimarySearch_ki.jsp?energyterm=kJ/mole&tag=pol&polymerid=50002394&target=Beta-lactamase&column=ki&startPg=0&Increment=50&submit=Search

> <Link to Ligand-Target Pair in BindingDB>
http://www.bindingdb.org/jsp/dbsearch/PrimarySearch_ki.jsp?energyterm=kJ/mole&tag=r21&monomerid=50339850&enzyme=Beta-lactamase&column=ki&startPg=0&Increment=50&submit=Search

> <Ligand HET ID in PDB>


> <PDB ID(s) for Ligand-Target Complex>


> <PubChem CID of Ligand>
54581212

> <PubChem SID of Ligand>
131342786

> <ChEBI ID of Ligand>


> <ChEMBL ID of Ligand>
CHEMBL1761095

> <DrugBank ID of Ligand>


> <IUPHAR_GRAC ID of Ligand>


> <KEGG ID of Ligand>


> <ZINC ID of Ligand>


> <Number of Protein Chains in Target (bigger than 1 implies a multichain complex)>
1

> <BindingDB Target Chain Sequence>
MMRKSLCCALLLGISCSALATPVSEKQLAEVVANTITPLMKAQSVPGMAVAVIYQGKPHYYTFGKADIAANKPVTPQTLFELGSISKTFTGVLGGDAIARGEISLDDAVTRYWPQLTGKQWQGIRMLDLATYTAGGLPLQVPDEVTDNASLLRFYQNWQPQWKPGTTRLYANASIGLFGALAVKPSGMPYEQAMTTRVLKPLKLDHTWINVPKAEEAHYAWGYRDGKAVRVSPGMLDAQAYGVKTNVQDMANWVMANMAPENVADASLKQGIALAQSRYWRIGSMYQGLGWEMLNWPVEANTVVEGSDSKVALAPLPVAEVNPPAPPVKASWVHKTGSTGGFGSYVAFIPEKQIGIVMLANTSYPNPARVEAAYHILEALQ

> <PDB ID(s) of Target Chain>
1XX2,2Q9M,2Q9N,7TI1

> <UniProt (SwissProt) Recommended Name of Target Chain>
Beta-lactamase

> <UniProt (SwissProt) Entry Name of Target Chain>
AMPC_ENTCL

> <UniProt (SwissProt) Primary ID of Target Chain>
P05364

> <UniProt (SwissProt) Secondary ID(s) of Target Chain>


> <UniProt (SwissProt) Alternative ID(s) of Target Chain>


> <UniProt (TrEMBL) Submitted Name of Target Chain>


> <UniProt (TrEMBL) Entry Name of Target Chain>


> <UniProt (TrEMBL) Primary ID of Target Chain>


> <UniProt (TrEMBL) Secondary ID(s) of Target Chain>


> <UniProt (TrEMBL) Alternative ID(s) of Target Chain>


$$$$

  Mrv0541 11191401012D          

 32 34  0  0  0  0            999 V2000
   -0.7396    1.4778    0.0000 C   0  0  0  0  0  0  0  0  0  0  0  0
   -1.5646    1.4778    0.0000 C   0  0  0  0  0  0  0  0  0  0  0  0
   -1.9771    2.1922    0.0000 C   0  0  0  0  0  0  0  0  0  0  0  0
   -1.5646    2.9067    0.0000 C   0  0  0  0  0  0  0  0  0  0  0  0
   -0.7396    2.9067    0.0000 C   0  0  0  0  0  0  0  0  0  0  0  0
   -0.3271    2.1922    0.0000 C   0  0  0  0  0  0  0  0  0  0  0  0
   -1.9771    3.6212    0.0000 B   0  0  0  0  0  0  0  0  0  0  0  0
   -2.8021    3.6212    0.0000 O   0  0  0  0  0  0  0  0  0  0  0  0
   -1.5646    4.3356    0.0000 O   0  0  0  0  0  0  0  0  0  0  0  0
    0.4979    2.1922    0.0000 N   0  0  0  0  0  0  0  0  0  0  0  0
    0.9104    1.4778    0.0000 S   0  0  0  0  0  0  0  0  0  0  0  0
    0.4979    0.7633    0.0000 O   0  0  0  0  0  0  0  0  0  0  0  0
    1.7354    1.4778    0.0000 C   0  0  0  0  0  0  0  0  0  0  0  0
    1.3229    2.1923    0.0000 O   0  0  0  0  0  0  0  0  0  0  0  0
    2.9729    2.1923    0.0000 C   0  0  0  0  0  0  0  0  0  0  0  0
    2.1479    2.1923    0.0000 C   0  0  0  0  0  0  0  0  0  0  0  0
    2.1479    0.7633    0.0000 C   0  0  0  0  0  0  0  0  0  0  0  0
    2.9729    0.7634    0.0000 C   0  0  0  0  0  0  0  0  0  0  0  0
    3.3854    1.4778    0.0000 C   0  0  0  0  0  0  0  0  0  0  0  0
    3.5563    0.1800    0.0000 S   0  0  0  0  0  0  0  0  0  0  0  0
    4.2707    0.5925    0.0000 N   0  0  0  0  0  0  0  0  0  0  0  0
    2.8418   -0.2325    0.0000 O   0  0  0  0  0  0  0  0  0  0  0  0
    4.1396   -0.4034    0.0000 O   0  0  0  0  0  0  0  0  0  0  0  0
    4.9852    0.1800    0.0000 C   0  0  0  0  0  0  0  0  0  0  0  0
    5.6997    0.5925    0.0000 C   0  0  0  0  0  0  0  0  0  0  0  0
    4.9852   -0.6450    0.0000 C   0  0  0  0  0  0  0  0  0  0  0  0
    5.6997   -1.0575    0.0000 C   0  0  0  0  0  0  0  0  0  0  0  0
    6.4141   -0.6450    0.0000 C   0  0  0  0  0  0  0  0  0  0  0  0
    6.4141    0.1800    0.0000 C   0  0  0  0  0  0  0  0  0  0  0  0
    5.6997   -1.8825    0.0000 B   0  0  0  0  0  0  0  0  0  0  0  0
    6.4141   -2.2950    0.0000 O   0  0  0  0  0  0  0  0  0  0  0  0
    4.9852   -2.2950    0.0000 O   0  0  0  0  0  0  0  0  0  0  0  0
  1  2  2  0  0  0  0
  2  3  1  0  0  0  0
  3  4  2  0  0  0  0
  4  5  1  0  0  0  0
  5  6  2  0  0  0  0
  1  6  1  0  0  0  0
  4  7  1  0  0  0  0
  7  8  1  0  0  0  0
  7  9  1  0  0  0  0
  6 10  1  0  0  0  0
 10 11  1  0  0  0  0
 11 12  2  0  0  0  0
 11 13  1  0  0  0  0
 11 14  2  0  0  0  0
 16 13  2  0  0  0  0
 13 17  1  0  0  0  0
 15 16  1  0  0  0  0
 17 18  2  0  0  0  0
 18 19  1  0  0  0  0
 15 19  2  0  0  0  0
 18 20  1  0  0  0  0
 20 21  1  0  0  0  0
 20 22  2  0  0  0  0
 20 23  2  0  0  0  0
 21 24  1  0  0  0  0
 25 24  2  0  0  0  0
 24 26  1  0  0  0  0
 26 27  2  0  0  0  0
 27 28  1  0  0  0  0
 28 29  2  0  0  0  0
 25 29  1  0  0  0  0
 27 30  1  0  0  0  0
 30 31  1  0  0  0  0
 30 32  1  0  0  0  0
M  END
> <From>
www.bindingDB.org

> <BindingDB Reactant_set_id>
74848

> <Ligand InChI>
InChI=1S/C18H18B2N2O8S2/c23-19(24)13-4-1-6-15(10-13)21-31(27,28)17-8-3-9-18(12-17)32(29,30)22-16-7-2-5-14(11-16)20(25)26/h1-12,21-26H

> <Ligand InChI Key>
BKZJNYNXBZSUPD-UHFFFAOYSA-N

> <BindingDB MonomerID>
39849

> <BindingDB Ligand Name>
Amide and sulfonamide derivatives, 33

> <Target Name>
Beta-lactamase TEM

> <Target Source Organism According to Curator or DataSource>


> <Ki (nM)>
 7.3e+3

> <IC50 (nM)>


> <Kd (nM)>


> <EC50 (nM)>


> <kon (M-1-s-1)>


> <koff (s-1)>


> <pH>
7

> <Temp C>


> <Curation/DataSource>
Curated from the literature by BindingDB

> <Article DOI>
10.1016/S1074-5521(01)00034-5

> <BindingDB Entry DOI>
10.7270/Q27M06BZ

> <PMID>
11410378

> <PubChem AID>
aid1799472

> <Patent Number>


> <Authors>
Tondi, D; Powers, RA; Caselli, E; Negri, MC; Bl&aacute;zquez, J; Costi, MP; Shoichet, BK

> <Institution>
Northwestern University

> <Link to Ligand in BindingDB>
http://www.bindingdb.org/bind/chemsearch/marvin/MolStructure.jsp?monomerid=39849

> <Link to Ligand-Target Pair in BindingDB>
http://www.bindingdb.org/jsp/dbsearch/PrimarySearch_ki.jsp?energyterm=kJ/mole&tag=pol&polymerid=7704&target=Beta-lactamase+TEM&column=ki&startPg=0&Increment=50&submit=Search

> <Link to Ligand-Target Pair in BindingDB>
http://www.bindingdb.org/jsp/dbsearch/PrimarySearch_ki.jsp?energyterm=kJ/mole&tag=r21&monomerid=39849&enzyme=Beta-lactamase+TEM&column=ki&startPg=0&Increment=50&submit=Search

> <Ligand HET ID in PDB>


> <PDB ID(s) for Ligand-Target Complex>


> <PubChem CID of Ligand>
9804998

> <PubChem SID of Ligand>
123080157

> <ChEBI ID of Ligand>


> <ChEMBL ID of Ligand>


> <DrugBank ID of Ligand>


> <IUPHAR_GRAC ID of Ligand>


> <KEGG ID of Ligand>


> <ZINC ID of Ligand>


> <Number of Protein Chains in Target (bigger than 1 implies a multichain complex)>
1

> <BindingDB Target Chain Sequence>
MSIQHFRVALIPFFAAFCLPVFAHPETLVKVKDAEDQLGARVGYIELDLNSGKILESFRPEERFPMMSTFKVLLCGAVLSRVDAGQEQLGRRIHYSQNDLVEYSPVTEKHLTDGMTVRELCSAAITMSDNTAANLLLTTIGGPKELTAFLHNMGDHVTRLDRWEPELNEAIPNDERDTTMPAAMATTLRKLLTGELLTLASRQQLIDWMEADKVAGPLLRSALPAGWFIADKSGAGERGSRGIIAALGPDGKPSRIVVIYTTGSQATMDERNRQIAEIGASLIKHW

> <PDB ID(s) of Target Chain>
1ERM,1ERO,1ERQ,1ESU,1FQG,1JTD,1JVJ,1JWP,1JWV,1LHY,1LI9,1M40,1NXY,1NY0,1NYM,1NYY,1PZO,1PZP,1S0W,1XPB,1YT4,2V1Z,2V20,3CMZ,3DTM,3JYI,3P98,4DXB,4DXC,4GKU,4ZJ2,5AQ8,5HVI,5HW1,5HW5,5NPO,6B2N,7QLP,7QNK,7U6Q,8DE0

> <UniProt (SwissProt) Recommended Name of Target Chain>
Beta-lactamase TEM

> <UniProt (SwissProt) Entry Name of Target Chain>
BLAT_ECOLX

> <UniProt (SwissProt) Primary ID of Target Chain>
P62593

> <UniProt (SwissProt) Secondary ID(s) of Target Chain>
P00810 Q47313

> <UniProt (SwissProt) Alternative ID(s) of Target Chain>


> <UniProt (TrEMBL) Submitted Name of Target Chain>


> <UniProt (TrEMBL) Entry Name of Target Chain>


> <UniProt (TrEMBL) Primary ID of Target Chain>


> <UniProt (TrEMBL) Secondary ID(s) of Target Chain>


> <UniProt (TrEMBL) Alternative ID(s) of Target Chain>


$$$$

  Mrv0541 11231401522D          

 10 10  0  0  0  0            999 V2000
   -0.9725    0.8613    0.0000 B   0  0  0  0  0  0  0  0  0  0  0  0
   -1.7019    0.4698    0.0000 C   0  0  0  0  0  0  0  0  0  0  0  0
   -1.7267   -0.3462    0.0000 C   0  0  0  0  0  0  0  0  0  0  0  0
   -2.4561   -0.7336    0.0000 C   0  0  0  0  0  0  0  0  0  0  0  0
   -0.2802    0.4203    0.0000 O   0  0  0  0  0  0  0  0  0  0  0  0
   -0.9478    1.6690    0.0000 O   0  0  0  0  0  0  0  0  0  0  0  0
   -2.4808   -1.5495    0.0000 N   0  0  0  0  0  0  0  0  0  0  0  0
   -2.3984    0.9149    0.0000 C   0  0  0  0  0  0  0  0  0  0  0  0
   -3.1237    0.5275    0.0000 C   0  0  0  0  0  0  0  0  0  0  0  0
   -3.1608   -0.2967    0.0000 C   0  0  0  0  0  0  0  0  0  0  0  0
  2  1  1  0  0  0  0
  3  2  2  0  0  0  0
  4  3  1  0  0  0  0
  5  1  1  0  0  0  0
  6  1  1  0  0  0  0
  7  4  1  0  0  0  0
  8  2  1  0  0  0  0
  9  8  2  0  0  0  0
 10  9  1  0  0  0  0
  4 10  2  0  0  0  0
M  END
> <From>
www.bindingDB.org

> <BindingDB Reactant_set_id>
50275061

> <Ligand InChI>
InChI=1S/C6H8BNO2/c8-6-3-1-2-5(4-6)7(9)10/h1-4,9-10H,8H2

> <Ligand InChI Key>
JMZFEHDNIAQMNB-UHFFFAOYSA-N

> <BindingDB MonomerID>
50067906

> <BindingDB Ligand Name>
(3-aminophenyl)boronic acid, 1::3-aminophenyl boronic acid::3-aminophenylboronic acid::Aza-boronic acid derivative::Boronic acid derivative::CHEMBL20852::M-AMINOPHENYLBORONIC ACID

> <Target Name>
Beta-lactamase

> <Target Source Organism According to Curator or DataSource>
Escherichia coli

> <Ki (nM)>
 7300

> <IC50 (nM)>


> <Kd (nM)>


> <EC50 (nM)>


> <kon (M-1-s-1)>


> <koff (s-1)>


> <pH>


> <Temp C>


> <Curation/DataSource>
ChEMBL

> <Article DOI>
10.1016/j.bmcl.2004.05.054

> <BindingDB Entry DOI>
10.7270/Q2XW4J8P

> <PMID>
15225711

> <PubChem AID>


> <Patent Number>


> <Authors>
Buzzoni, V; Blazquez, J; Ferrari, S; Calo, S; Venturelli, A; Costi, MP

> <Institution>
Universit&#224; degli Studi di Modena e Reggio Emilia

> <Link to Ligand in BindingDB>
http://www.bindingdb.org/bind/chemsearch/marvin/MolStructure.jsp?monomerid=50067906

> <Link to Ligand-Target Pair in BindingDB>
http://www.bindingdb.org/jsp/dbsearch/PrimarySearch_ki.jsp?energyterm=kJ/mole&tag=pol&polymerid=4401&target=Beta-lactamase&column=ki&startPg=0&Increment=50&submit=Search

> <Link to Ligand-Target Pair in BindingDB>
http://www.bindingdb.org/jsp/dbsearch/PrimarySearch_ki.jsp?energyterm=kJ/mole&tag=r21&monomerid=50067906&enzyme=Beta-lactamase&column=ki&startPg=0&Increment=50&submit=Search

> <Ligand HET ID in PDB>
APB

> <PDB ID(s) for Ligand-Target Complex>
4LV0,4E6W,3BLS

> <PubChem CID of Ligand>
92269

> <PubChem SID of Ligand>
103962332

> <ChEBI ID of Ligand>


> <ChEMBL ID of Ligand>
CHEMBL20852

> <DrugBank ID of Ligand>
DB01896

> <IUPHAR_GRAC ID of Ligand>


> <KEGG ID of Ligand>


> <ZINC ID of Ligand>


> <Number of Protein Chains in Target (bigger than 1 implies a multichain complex)>
1

> <BindingDB Target Chain Sequence>
MFKTTLCALLITASCSTFAAPQQINDIVHRTITPLIEQQKIPGMAVAVIYQGKPYYFTWGYADIAKKQPVTQQTLFELGSVSKTFTGVLGGDAIARGEIKLSDPTTKYWPELTAKQWNGITLLHLATYTAGGLPLQVPDEVKSSSDLLRFYQNWQPAWAPGTQRLYANSSIGLFGALAVKPSGLSFEQAMQTRVFQPLKLNHTWINVPPAEEKNYAWGYREGKAVHVSPGALDAEAYGVKSTIEDMARWVQSNLKPLDINEKTLQQGIQLAQSRYWQTGDMYQGLGWEMLDWPVNPDSIINGSDNKIALAARPVKAITPPTPAVRASWVHKTGATGGFGSYVAFIPEKELGIVMLANKNYPNPARVDAAWQILNALQ

> <PDB ID(s) of Target Chain>
1C3B,1FCO,1FSW,1FSY,1GA9,1IEL,1IEM,1KDS,1KDW,1KE0,1KE3,1KE4,1KVM,1L2S,1LL5,1LL9,1LLB,1MXO,1MY8,1XGI,1XGJ,2BLS,2HDQ,2HDR,2HDS,2HDU,2I72,2P9V,2PU2,2PU4,2R9W,2R9X,2RCX,3BLS,3BM6,3GQZ,3GR2,3GRJ,3GSG,3GTC,3GV9,3GVB,3O86,3O87,3O88,4E3I,4E3J,4E3K,4E3L,4E3M,4E3N,4E3O,4JXG,4JXS,4JXV,4JXW,4KG2,4KZ3,4KZ4,4KZ5,4KZ6,4KZ7,4KZ8,4KZ9,4KZA,4KZB,4LV0,4LV1,4LV2,4LV3,4OKP,4OLD,4OLG,6DPT,6DPX,6DPY,6DPZ,6T35,6T3D,6T5Y,6T7L,6TBW,6TPM,6WGQ,6YEN,6YEO,6YPD

> <UniProt (SwissProt) Recommended Name of Target Chain>
Beta-lactamase

> <UniProt (SwissProt) Entry Name of Target Chain>
AMPC_ECOLI

> <UniProt (SwissProt) Primary ID of Target Chain>
P00811

> <UniProt (SwissProt) Secondary ID(s) of Target Chain>
Q2M6F2

> <UniProt (SwissProt) Alternative ID(s) of Target Chain>


> <UniProt (TrEMBL) Submitted Name of Target Chain>


> <UniProt (TrEMBL) Entry Name of Target Chain>


> <UniProt (TrEMBL) Primary ID of Target Chain>


> <UniProt (TrEMBL) Secondary ID(s) of Target Chain>


> <UniProt (TrEMBL) Alternative ID(s) of Target Chain>


$$$$

  Mrv0541 11231401522D          

 10 10  0  0  0  0            999 V2000
   -0.9725    0.8613    0.0000 B   0  0  0  0  0  0  0  0  0  0  0  0
   -1.7019    0.4698    0.0000 C   0  0  0  0  0  0  0  0  0  0  0  0
   -1.7267   -0.3462    0.0000 C   0  0  0  0  0  0  0  0  0  0  0  0
   -2.4561   -0.7336    0.0000 C   0  0  0  0  0  0  0  0  0  0  0  0
   -0.2802    0.4203    0.0000 O   0  0  0  0  0  0  0  0  0  0  0  0
   -0.9478    1.6690    0.0000 O   0  0  0  0  0  0  0  0  0  0  0  0
   -2.4808   -1.5495    0.0000 N   0  0  0  0  0  0  0  0  0  0  0  0
   -2.3984    0.9149    0.0000 C   0  0  0  0  0  0  0  0  0  0  0  0
   -3.1237    0.5275    0.0000 C   0  0  0  0  0  0  0  0  0  0  0  0
   -3.1608   -0.2967    0.0000 C   0  0  0  0  0  0  0  0  0  0  0  0
  2  1  1  0  0  0  0
  3  2  2  0  0  0  0
  4  3  1  0  0  0  0
  5  1  1  0  0  0  0
  6  1  1  0  0  0  0
  7  4  1  0  0  0  0
  8  2  1  0  0  0  0
  9  8  2  0  0  0  0
 10  9  1  0  0  0  0
  4 10  2  0  0  0  0
M  END
> <From>
www.bindingDB.org

> <BindingDB Reactant_set_id>
50117293

> <Ligand InChI>
InChI=1S/C6H8BNO2/c8-6-3-1-2-5(4-6)7(9)10/h1-4,9-10H,8H2

> <Ligand InChI Key>
JMZFEHDNIAQMNB-UHFFFAOYSA-N

> <BindingDB MonomerID>
50067906

> <BindingDB Ligand Name>
(3-aminophenyl)boronic acid, 1::3-aminophenyl boronic acid::3-aminophenylboronic acid::Aza-boronic acid derivative::Boronic acid derivative::CHEMBL20852::M-AMINOPHENYLBORONIC ACID

> <Target Name>
Beta-lactamase

> <Target Source Organism According to Curator or DataSource>
Escherichia coli

> <Ki (nM)>
 7300

> <IC50 (nM)>


> <Kd (nM)>


> <EC50 (nM)>


> <kon (M-1-s-1)>


> <koff (s-1)>


> <pH>


> <Temp C>


> <Curation/DataSource>
ChEMBL

> <Article DOI>
10.1021/jm980343w

> <BindingDB Entry DOI>
10.7270/Q22N51FX

> <PMID>
9804697

> <PubChem AID>


> <Patent Number>


> <Authors>
Weston, GS; Blazquez, J; Baquero, F; Shoichet, BK

> <Institution>
Northwestern University Medical School

> <Link to Ligand in BindingDB>
http://www.bindingdb.org/bind/chemsearch/marvin/MolStructure.jsp?monomerid=50067906

> <Link to Ligand-Target Pair in BindingDB>
http://www.bindingdb.org/jsp/dbsearch/PrimarySearch_ki.jsp?energyterm=kJ/mole&tag=pol&polymerid=4401&target=Beta-lactamase&column=ki&startPg=0&Increment=50&submit=Search

> <Link to Ligand-Target Pair in BindingDB>
http://www.bindingdb.org/jsp/dbsearch/PrimarySearch_ki.jsp?energyterm=kJ/mole&tag=r21&monomerid=50067906&enzyme=Beta-lactamase&column=ki&startPg=0&Increment=50&submit=Search

> <Ligand HET ID in PDB>
APB

> <PDB ID(s) for Ligand-Target Complex>
4LV0,4E6W,3BLS

> <PubChem CID of Ligand>
92269

> <PubChem SID of Ligand>
103962332

> <ChEBI ID of Ligand>


> <ChEMBL ID of Ligand>
CHEMBL20852

> <DrugBank ID of Ligand>
DB01896

> <IUPHAR_GRAC ID of Ligand>


> <KEGG ID of Ligand>


> <ZINC ID of Ligand>


> <Number of Protein Chains in Target (bigger than 1 implies a multichain complex)>
1

> <BindingDB Target Chain Sequence>
MFKTTLCALLITASCSTFAAPQQINDIVHRTITPLIEQQKIPGMAVAVIYQGKPYYFTWGYADIAKKQPVTQQTLFELGSVSKTFTGVLGGDAIARGEIKLSDPTTKYWPELTAKQWNGITLLHLATYTAGGLPLQVPDEVKSSSDLLRFYQNWQPAWAPGTQRLYANSSIGLFGALAVKPSGLSFEQAMQTRVFQPLKLNHTWINVPPAEEKNYAWGYREGKAVHVSPGALDAEAYGVKSTIEDMARWVQSNLKPLDINEKTLQQGIQLAQSRYWQTGDMYQGLGWEMLDWPVNPDSIINGSDNKIALAARPVKAITPPTPAVRASWVHKTGATGGFGSYVAFIPEKELGIVMLANKNYPNPARVDAAWQILNALQ

> <PDB ID(s) of Target Chain>
1C3B,1FCO,1FSW,1FSY,1GA9,1IEL,1IEM,1KDS,1KDW,1KE0,1KE3,1KE4,1KVM,1L2S,1LL5,1LL9,1LLB,1MXO,1MY8,1XGI,1XGJ,2BLS,2HDQ,2HDR,2HDS,2HDU,2I72,2P9V,2PU2,2PU4,2R9W,2R9X,2RCX,3BLS,3BM6,3GQZ,3GR2,3GRJ,3GSG,3GTC,3GV9,3GVB,3O86,3O87,3O88,4E3I,4E3J,4E3K,4E3L,4E3M,4E3N,4E3O,4JXG,4JXS,4JXV,4JXW,4KG2,4KZ3,4KZ4,4KZ5,4KZ6,4KZ7,4KZ8,4KZ9,4KZA,4KZB,4LV0,4LV1,4LV2,4LV3,4OKP,4OLD,4OLG,6DPT,6DPX,6DPY,6DPZ,6T35,6T3D,6T5Y,6T7L,6TBW,6TPM,6WGQ,6YEN,6YEO,6YPD

> <UniProt (SwissProt) Recommended Name of Target Chain>
Beta-lactamase

> <UniProt (SwissProt) Entry Name of Target Chain>
AMPC_ECOLI

> <UniProt (SwissProt) Primary ID of Target Chain>
P00811

> <UniProt (SwissProt) Secondary ID(s) of Target Chain>
Q2M6F2

> <UniProt (SwissProt) Alternative ID(s) of Target Chain>


> <UniProt (TrEMBL) Submitted Name of Target Chain>


> <UniProt (TrEMBL) Entry Name of Target Chain>


> <UniProt (TrEMBL) Primary ID of Target Chain>


> <UniProt (TrEMBL) Secondary ID(s) of Target Chain>


> <UniProt (TrEMBL) Alternative ID(s) of Target Chain>


$$$$
