00135001.cdx

Structure written by MVD (www.molegro.com)
 23 24  0  0  1  0            999 V2000
   -1.3634    1.1167    0.0000 C   0  0  0  0  0  0
   -1.3634    0.2917    0.0000 N   0  0  0  0  0  0
   -0.6489   -0.1208    0.0000 C   0  0  0  0  0  0
    0.0656    0.2917    0.0000 C   0  0  0  0  0  0
    0.0656    1.1167    0.0000 C   0  0  0  0  0  0
   -0.6489    1.5292    0.0000 C   0  0  0  0  0  0
   -2.0779    1.5292    0.0000 C   0  0  0  0  0  0
   -1.3634   -0.5333    0.0000 C   0  0  0  0  0  0
    0.0656   -0.5333    0.0000 N   0  0  0  0  0  0
   -1.9468   -1.1167    0.0000 O   0  0  0  0  0  0
    0.6489   -1.1167    0.0000 O   0  0  0  0  0  0
    0.7800    1.5292    0.0000 C   0  0  0  0  0  0
   -2.7923    1.9417    0.0000 N   0  0  0  0  0  0
    1.3634   -0.7042    0.0000 C   0  0  0  0  0  0
    2.0779   -1.1167    0.0000 C   0  0  0  0  0  0
    1.3634    0.1208    0.0000 F   0  0  0  0  0  0
    2.7923   -0.7042    0.0000 O   0  0  0  0  0  0
    2.0779   -1.9417    0.0000 O   0  0  0  0  0  0
   -0.6489   -1.2108    0.0000 H   0  0  0  0  0  0
   -0.6489    2.6192    0.0000 H   0  0  0  0  0  0
    0.5348    2.5913    0.0000 H   0  0  0  0  0  0
    1.3166    1.2372    0.9027 H   0  0  0  0  0  0
    1.3166    1.2372   -0.9027 H   0  0  0  0  0  0
  1  2  1  0  0  0
  2  3  2  0  0  0
  4  3  1  0  0  0
  4  5  1  0  0  0
  5  6  2  0  0  0
  1  6  1  0  0  0
  1  7  2  0  0  0
  2  8  1  0  0  0
  4  9  1  0  0  0
  8  9  1  0  0  0
  8 10  2  0  0  0
  9 11  1  0  0  0
  5 12  1  0  0  0
  7 13  1  0  0  0
 14 11  1  0  0  0
 14 15  2  0  0  0
 14 16  1  0  0  0
 15 17  4  0  0  0
 15 18  4  0  0  0
  3 19  1  0  0  0
  6 20  1  0  0  0
 12 21  1  0  0  0
 12 22  1  0  0  0
 12 23  1  0  0  0
M  END
$$$$
00082001.cdx

Structure written by MVD (www.molegro.com)
 29 31  0  0  1  0            999 V2000
   -1.3803    0.7241    0.0000 C   0  0  0  0  0  0
   -1.3803   -0.1009    0.0000 N   0  0  0  0  0  0
   -0.6658   -0.5134    0.0000 C   0  0  0  0  0  0
    0.0487   -0.1009    0.0000 C   0  0  0  0  0  0
    0.0487    0.7241    0.0000 C   0  0  0  0  0  0
   -0.6658    1.1366    0.0000 C   0  0  0  0  0  0
   -2.0947    1.1366    0.0000 C   0  0  0  0  0  0
   -2.8092    0.7241    0.0000 N   0  0  0  0  0  0
   -2.0947    1.9616    0.0000 O   0  0  0  0  0  0
   -1.3803   -0.9259    0.0000 C   0  0  0  0  0  0
   -0.6658    1.9616    0.0000 C   0  0  0  0  0  0
    0.0487   -0.9259    0.0000 N   0  0  0  0  0  0
    0.6321   -1.5093    0.0000 O   0  0  0  0  0  0
   -1.9636   -1.5093    0.0000 O   0  0  0  0  0  0
    2.0123   -1.8791    0.0000 C   0  0  0  0  0  0
    1.4289   -1.2958    0.0000 C   0  0  0  0  0  0
    1.6425   -0.4989    0.0000 F   0  0  0  0  0  0
    1.7988   -2.6760    0.0000 O   0  0  0  0  0  0
    2.8092   -1.6656    0.0000 O   0  0  0  0  0  0
   -0.2533    2.6760    0.0000 C   0  0  0  0  0  0
   -1.0783    2.6760    0.0000 C   0  0  0  0  0  0
   -0.6658   -1.6034    0.0000 H   0  0  0  0  0  0
    0.9927    1.2691    0.0000 H   0  0  0  0  0  0
   -3.7012    1.2391    0.0000 H   0  0  0  0  0  0
   -2.8092   -0.3059    0.0000 H   0  0  0  0  0  0
    0.5642    3.1479   -0.5450 H   0  0  0  0  0  0
    0.5642    3.1480    0.5450 H   0  0  0  0  0  0
   -1.8958    3.1480   -0.5450 H   0  0  0  0  0  0
   -1.8958    3.1479    0.5450 H   0  0  0  0  0  0
  1  2  1  0  0  0
  2  3  2  0  0  0
  4  3  1  0  0  0
  4  5  1  0  0  0
  5  6  1  0  0  0
  1  6  1  0  0  0
  1  7  2  0  0  0
  7  8  1  0  0  0
  7  9  2  0  0  0
  2 10  1  0  0  0
  6 11  2  0  0  0
  4 12  1  0  0  0
 12 10  1  0  0  0
 12 13  1  0  0  0
 10 14  2  0  0  0
 16 13  1  0  0  0
 16 15  2  0  0  0
 16 17  1  0  0  0
 15 18  4  0  0  0
 15 19  4  0  0  0
 11 20  1  0  0  0
 20 21  1  0  0  0
 21 11  1  0  0  0
  3 22  1  0  0  0
  5 23  1  0  0  0
  8 24  1  0  0  0
  8 25  1  0  0  0
 20 26  1  0  0  0
 20 27  1  0  0  0
 21 28  1  0  0  0
 21 29  1  0  0  0
M  END
$$$$
00081001.cdx

Structure written by MVD (www.molegro.com)
 29 31  0  0  1  0            999 V2000
   -1.3803    0.7241    0.0000 C   0  0  0  0  0  0
   -1.3803   -0.1009    0.0000 N   0  0  0  0  0  0
   -0.6658   -0.5134    0.0000 C   0  0  0  0  0  0
    0.0487   -0.1009    0.0000 C   0  0  0  0  0  0
    0.0487    0.7241    0.0000 C   0  0  0  0  0  0
   -0.6658    1.1366    0.0000 C   0  0  0  0  0  0
   -2.0947    1.1366    0.0000 C   0  0  0  0  0  0
   -2.8092    0.7241    0.0000 N   0  0  0  0  0  0
   -2.0947    1.9616    0.0000 O   0  0  0  0  0  0
   -1.3803   -0.9259    0.0000 C   0  0  0  0  0  0
   -0.6658    1.9616    0.0000 C   0  0  0  0  0  0
    0.0487   -0.9259    0.0000 N   0  0  0  0  0  0
    0.6321   -1.5093    0.0000 O   0  0  0  0  0  0
   -1.9636   -1.5093    0.0000 O   0  0  0  0  0  0
    2.0123   -1.8791    0.0000 C   0  0  0  0  0  0
    1.4289   -1.2958    0.0000 C   0  0  0  0  0  0
    1.6425   -0.4989    0.0000 F   0  0  0  0  0  0
    1.7988   -2.6760    0.0000 O   0  0  0  0  0  0
    2.8092   -1.6656    0.0000 O   0  0  0  0  0  0
   -0.2533    2.6760    0.0000 C   0  0  0  0  0  0
   -1.0783    2.6760    0.0000 C   0  0  0  0  0  0
   -0.6658   -1.6034    0.0000 H   0  0  0  0  0  0
    0.9927    1.2691    0.0000 H   0  0  0  0  0  0
   -3.7012    1.2391    0.0000 H   0  0  0  0  0  0
   -2.8092   -0.3059    0.0000 H   0  0  0  0  0  0
    0.5642    3.1479   -0.5450 H   0  0  0  0  0  0
    0.5642    3.1480    0.5450 H   0  0  0  0  0  0
   -1.8958    3.1480   -0.5450 H   0  0  0  0  0  0
   -1.8958    3.1479    0.5450 H   0  0  0  0  0  0
  1  2  1  0  0  0
  2  3  2  0  0  0
  4  3  1  0  0  0
  4  5  1  0  0  0
  5  6  1  0  0  0
  1  6  1  0  0  0
  1  7  2  0  0  0
  7  8  1  0  0  0
  7  9  2  0  0  0
  2 10  1  0  0  0
  6 11  2  0  0  0
  4 12  1  0  0  0
 12 10  1  0  0  0
 12 13  1  0  0  0
 10 14  2  0  0  0
 16 13  1  0  0  0
 16 15  2  0  0  0
 16 17  1  0  0  0
 15 18  4  0  0  0
 15 19  4  0  0  0
 11 20  1  0  0  0
 20 21  1  0  0  0
 21 11  1  0  0  0
  3 22  1  0  0  0
  5 23  1  0  0  0
  8 24  1  0  0  0
  8 25  1  0  0  0
 20 26  1  0  0  0
 20 27  1  0  0  0
 21 28  1  0  0  0
 21 29  1  0  0  0
M  END
$$$$
00095001.cdx

Structure written by MVD (www.molegro.com)
 31 33  0  0  1  0            999 V2000
   -0.7129    0.2872    0.0000 C   0  0  0  0  0  0
   -0.7129   -0.5378    0.0000 N   0  0  0  0  0  0
    0.0016   -0.9503    0.0000 C   0  0  0  0  0  0
    0.7161   -0.5378    0.0000 C   0  0  0  0  0  0
    0.7161    0.2872    0.0000 C   0  0  0  0  0  0
    0.0016    0.6997    0.0000 C   0  0  0  0  0  0
    0.0016    1.5247    0.0000 C   0  0  0  0  0  0
   -1.4273    0.6997    0.0000 C   0  0  0  0  0  0
   -0.7129   -1.3628    0.0000 C   0  0  0  0  0  0
    0.7161   -1.3628    0.0000 N   0  0  0  0  0  0
   -1.2962   -1.9461    0.0000 O   0  0  0  0  0  0
    1.2994   -1.9461    0.0000 O   0  0  0  0  0  0
    2.6797   -2.3160    0.0000 C   0  0  0  0  0  0
    2.0963   -1.7326    0.0000 C   0  0  0  0  0  0
    2.3099   -0.9357    0.0000 F   0  0  0  0  0  0
    2.4662   -3.1129    0.0000 O   0  0  0  0  0  0
    3.4766   -2.1024    0.0000 O   0  0  0  0  0  0
   -1.5136    1.5202    0.0000 O   0  0  0  0  0  0
   -2.3205    1.6917    0.0000 C   0  0  0  0  0  0
   -2.7330    0.9773    0.0000 N   0  0  0  0  0  0
   -2.1810    0.3642    0.0000 N   0  0  0  0  0  0
   -2.6561    2.4454    0.0000 C   0  0  0  0  0  0
   -2.1712    3.1129    0.0000 O   0  0  0  0  0  0
   -3.4766    2.5317    0.0000 N   0  0  0  0  0  0
    0.0016   -2.0403    0.0000 H   0  0  0  0  0  0
    1.6601    0.8322    0.0000 H   0  0  0  0  0  0
   -1.0408    1.8434    0.0000 H   0  0  0  0  0  0
    0.5228    1.8434    0.9027 H   0  0  0  0  0  0
    0.5228    1.8434   -0.9027 H   0  0  0  0  0  0
   -3.8955    3.4727    0.0000 H   0  0  0  0  0  0
   -4.0821    1.6985    0.0000 H   0  0  0  0  0  0
  1  2  1  0  0  0
  2  3  2  0  0  0
  4  3  1  0  0  0
  4  5  1  0  0  0
  5  6  2  0  0  0
  1  6  1  0  0  0
  6  7  1  0  0  0
  1  8  2  0  0  0
  2  9  1  0  0  0
  4 10  1  0  0  0
  9 10  1  0  0  0
  9 11  2  0  0  0
 10 12  1  0  0  0
 12 14  1  0  0  0
 14 13  2  0  0  0
 14 15  1  0  0  0
 13 16  4  0  0  0
 13 17  4  0  0  0
  8 18  4  0  0  0
 18 19  4  0  0  0
 19 20  4  0  0  0
 20 21  4  0  0  0
 21  8  4  0  0  0
 19 22  1  0  0  0
 22 23  2  0  0  0
 22 24  1  0  0  0
  3 25  1  0  0  0
  5 26  1  0  0  0
  7 27  1  0  0  0
  7 28  1  0  0  0
  7 29  1  0  0  0
 24 30  1  0  0  0
 24 31  1  0  0  0
M  END
$$$$
00127001.cdx

Structure written by MVD (www.molegro.com)
 29 30  0  0  1  0            999 V2000
   -0.6658    1.0813    0.0000 C   0  0  0  0  0  0
   -0.6658    0.2563    0.0000 N   0  0  0  0  0  0
    0.0487   -0.1562    0.0000 C   0  0  0  0  0  0
    0.7632    0.2563    0.0000 C   0  0  0  0  0  0
    0.7632    1.0813    0.0000 C   0  0  0  0  0  0
    0.0487    1.4938    0.0000 C   0  0  0  0  0  0
    0.0487    2.3188    0.0000 C   0  0  0  0  0  0
   -1.3803    1.4938    0.0000 C   0  0  0  0  0  0
   -2.0947    1.0813    0.0000 N   0  0  0  0  0  0
   -1.3803    2.3188    0.0000 O   0  0  0  0  0  0
   -0.6658   -0.5687    0.0000 C   0  0  0  0  0  0
    0.7632   -0.5687    0.0000 N   0  0  0  0  0  0
   -1.2491   -1.1521    0.0000 O   0  0  0  0  0  0
    1.3465   -1.1521    0.0000 O   0  0  0  0  0  0
    2.7268   -1.5219    0.0000 C   0  0  0  0  0  0
    2.1434   -0.9385    0.0000 C   0  0  0  0  0  0
    2.3569   -0.1417    0.0000 F   0  0  0  0  0  0
    2.5133   -2.3188    0.0000 O   0  0  0  0  0  0
    3.5237   -1.3084    0.0000 O   0  0  0  0  0  0
   -2.8092    1.4938    0.0000 C   0  0  0  0  0  0
   -3.5237    1.0813    0.0000 O   0  0  0  0  0  0
    0.0487   -1.2462    0.0000 H   0  0  0  0  0  0
    1.7072    1.6263    0.0000 H   0  0  0  0  0  0
   -0.9937    2.6375    0.0000 H   0  0  0  0  0  0
    0.5699    2.6375    0.9027 H   0  0  0  0  0  0
    0.5699    2.6375   -0.9027 H   0  0  0  0  0  0
   -2.0947    0.0513    0.0000 H   0  0  0  0  0  0
   -2.8092    2.5838    0.0000 H   0  0  0  0  0  0
   -3.2920    0.0777    0.0000 H   0  0  0  0  0  0
  1  2  1  0  0  0
  2  3  2  0  0  0
  4  3  1  0  0  0
  4  5  1  0  0  0
  5  6  1  0  0  0
  1  6  2  0  0  0
  6  7  1  0  0  0
  1  8  1  0  0  0
  8  9  4  0  0  0
  8 10  2  0  0  0
  2 11  1  0  0  0
  4 12  1  0  0  0
 11 12  1  0  0  0
 11 13  2  0  0  0
 12 14  1  0  0  0
 16 14  1  0  0  0
 16 15  2  0  0  0
 16 17  1  0  0  0
 15 18  4  0  0  0
 15 19  4  0  0  0
  9 20  2  0  0  0
 20 21  1  0  0  0
  3 22  1  0  0  0
  5 23  1  0  0  0
  7 24  1  0  0  0
  7 25  1  0  0  0
  7 26  1  0  0  0
  9 27  1  0  0  0
 20 28  1  0  0  0
 21 29  1  0  0  0
M  END
$$$$
00106001.cdx

Structure written by MVD (www.molegro.com)
 33 35  0  0  1  0            999 V2000
   -0.5178    1.0813    0.0000 C   0  0  0  0  0  0
   -0.5178    0.2563    0.0000 N   0  0  0  0  0  0
    0.1967   -0.1562    0.0000 C   0  0  0  0  0  0
    0.9111    0.2563    0.0000 C   0  0  0  0  0  0
    0.9111    1.0813    0.0000 C   0  0  0  0  0  0
    0.1967    1.4938    0.0000 C   0  0  0  0  0  0
    0.1967    2.3188    0.0000 C   0  0  0  0  0  0
   -1.2323    1.4938    0.0000 C   0  0  0  0  0  0
   -1.9468    1.0813    0.0000 N   0  0  0  0  0  0
   -1.2323    2.3188    0.0000 O   0  0  0  0  0  0
   -0.5178   -0.5687    0.0000 C   0  0  0  0  0  0
    0.9111   -0.5687    0.0000 N   0  0  0  0  0  0
   -1.1012   -1.1521    0.0000 O   0  0  0  0  0  0
    1.4945   -1.1521    0.0000 O   0  0  0  0  0  0
    2.8747   -1.5219    0.0000 C   0  0  0  0  0  0
    2.2914   -0.9385    0.0000 C   0  0  0  0  0  0
    2.5049   -0.1417    0.0000 F   0  0  0  0  0  0
    2.6612   -2.3188    0.0000 O   0  0  0  0  0  0
    3.6716   -1.3084    0.0000 O   0  0  0  0  0  0
   -2.6612    1.4938    0.0000 C   0  0  0  0  0  0
   -2.8747    2.2907    0.0000 C   0  0  0  0  0  0
   -3.6716    2.0772    0.0000 O   0  0  0  0  0  0
   -3.4581    1.2803    0.0000 C   0  0  0  0  0  0
    0.1967   -1.2462    0.0000 H   0  0  0  0  0  0
    1.8551    1.6263    0.0000 H   0  0  0  0  0  0
   -0.8457    2.6375    0.0000 H   0  0  0  0  0  0
    0.7179    2.6375    0.9027 H   0  0  0  0  0  0
    0.7179    2.6375   -0.9027 H   0  0  0  0  0  0
   -1.9468    0.0513    0.0000 H   0  0  0  0  0  0
   -2.4893    2.9582   -0.7707 H   0  0  0  0  0  0
   -2.4893    2.9582    0.7707 H   0  0  0  0  0  0
   -3.8435    0.6128   -0.7707 H   0  0  0  0  0  0
   -3.8435    0.6128    0.7707 H   0  0  0  0  0  0
  1  2  1  0  0  0
  2  3  2  0  0  0
  4  3  1  0  0  0
  4  5  1  0  0  0
  5  6  2  0  0  0
  1  6  2  0  0  0
  6  7  1  0  0  0
  1  8  1  0  0  0
  8  9  4  0  0  0
  8 10  2  0  0  0
  2 11  1  0  0  0
  4 12  1  0  0  0
 11 12  1  0  0  0
 11 13  2  0  0  0
 12 14  1  0  0  0
 16 14  1  0  0  0
 16 15  2  0  0  0
 16 17  1  0  0  0
 15 18  4  0  0  0
 15 19  4  0  0  0
  9 20  2  0  0  0
 20 21  1  0  0  0
 21 22  1  0  0  0
 22 23  1  0  0  0
 23 20  1  0  0  0
  3 24  1  0  0  0
  5 25  1  0  0  0
  7 26  1  0  0  0
  7 27  1  0  0  0
  7 28  1  0  0  0
  9 29  1  0  0  0
 21 30  1  0  0  0
 21 31  1  0  0  0
 23 32  1  0  0  0
 23 33  1  0  0  0
M  END
$$$$
00048001.cdx

Structure written by MVD (www.molegro.com)
 27 28  0  0  1  0            999 V2000
   -1.3803    1.0813    0.0000 C   0  0  0  0  0  0
   -1.3803    0.2563    0.0000 N   0  0  0  0  0  0
   -0.6658   -0.1562    0.0000 C   0  0  0  0  0  0
    0.0487    0.2563    0.0000 C   0  0  0  0  0  0
    0.0487    1.0813    0.0000 C   0  0  0  0  0  0
   -0.6658    1.4938    0.0000 C   0  0  0  0  0  0
   -2.0947    1.4938    0.0000 C   0  0  0  0  0  0
   -2.8092    1.0813    0.0000 N   0  0  0  0  0  0
   -2.0947    2.3188    0.0000 O   0  0  0  0  0  0
   -1.3803   -0.5687    0.0000 C   0  0  0  0  0  0
   -0.6658    2.3188    0.0000 C   0  0  0  0  0  0
    0.0487   -0.5687    0.0000 N   0  0  0  0  0  0
    0.6321   -1.1521    0.0000 O   0  0  0  0  0  0
   -1.9636   -1.1521    0.0000 O   0  0  0  0  0  0
    2.0123   -1.5219    0.0000 C   0  0  0  0  0  0
    1.4289   -0.9385    0.0000 C   0  0  0  0  0  0
    1.6425   -0.1417    0.0000 F   0  0  0  0  0  0
    1.7988   -2.3188    0.0000 O   0  0  0  0  0  0
    2.8092   -1.3084    0.0000 O   0  0  0  0  0  0
    2.2258   -0.7250    0.0000 F   0  0  0  0  0  0
   -0.6658   -1.2462    0.0000 H   0  0  0  0  0  0
    0.9927    1.6263    0.0000 H   0  0  0  0  0  0
   -3.7012    1.5963    0.0000 H   0  0  0  0  0  0
   -2.8092    0.0513    0.0000 H   0  0  0  0  0  0
   -1.7082    2.6375    0.0000 H   0  0  0  0  0  0
   -0.1446    2.6375    0.9027 H   0  0  0  0  0  0
   -0.1446    2.6375   -0.9027 H   0  0  0  0  0  0
  1  2  1  0  0  0
  2  3  2  0  0  0
  4  3  1  0  0  0
  4  5  1  0  0  0
  5  6  2  0  0  0
  1  6  1  0  0  0
  1  7  2  0  0  0
  7  8  1  0  0  0
  7  9  2  0  0  0
  2 10  1  0  0  0
  6 11  1  0  0  0
  4 12  1  0  0  0
 12 10  1  0  0  0
 12 13  1  0  0  0
 10 14  2  0  0  0
 13 16  1  0  0  0
 16 15  1  0  0  0
 16 17  1  0  0  0
 15 18  4  0  0  0
 15 19  4  0  0  0
 16 20  1  0  0  0
  3 21  1  0  0  0
  5 22  1  0  0  0
  8 23  1  0  0  0
  8 24  1  0  0  0
 11 25  1  0  0  0
 11 26  1  0  0  0
 11 27  1  0  0  0
M  END
$$$$
00044001.cdx

Structure written by MVD (www.molegro.com)
 26 27  0  0  1  0            999 V2000
   -1.3803    1.0813    0.0000 C   0  0  0  0  0  0
   -1.3803    0.2563    0.0000 N   0  0  0  0  0  0
   -0.6658   -0.1562    0.0000 C   0  0  0  0  0  0
    0.0487    0.2563    0.0000 C   0  0  0  0  0  0
    0.0487    1.0813    0.0000 C   0  0  0  0  0  0
   -0.6658    1.4938    0.0000 C   0  0  0  0  0  0
   -2.0947    1.4938    0.0000 C   0  0  0  0  0  0
   -2.8092    1.0813    0.0000 N   0  0  0  0  0  0
   -2.0947    2.3188    0.0000 O   0  0  0  0  0  0
   -1.3803   -0.5687    0.0000 C   0  0  0  0  0  0
   -0.6658    2.3188    0.0000 C   0  0  0  0  0  0
    0.0487   -0.5687    0.0000 N   0  0  0  0  0  0
    0.6321   -1.1521    0.0000 O   0  0  0  0  0  0
   -1.9636   -1.1521    0.0000 O   0  0  0  0  0  0
    2.0123   -1.5219    0.0000 C   0  0  0  0  0  0
    1.4289   -0.9385    0.0000 C   0  0  0  0  0  0
    1.6425   -0.1417    0.0000 F   0  0  0  0  0  0
    1.7988   -2.3188    0.0000 O   0  0  0  0  0  0
    2.8092   -1.3084    0.0000 O   0  0  0  0  0  0
   -0.6658   -1.2462    0.0000 H   0  0  0  0  0  0
    0.9927    1.6263    0.0000 H   0  0  0  0  0  0
   -3.7012    1.5963    0.0000 H   0  0  0  0  0  0
   -2.8092    0.0513    0.0000 H   0  0  0  0  0  0
   -1.7082    2.6375    0.0000 H   0  0  0  0  0  0
   -0.1446    2.6375    0.9027 H   0  0  0  0  0  0
   -0.1446    2.6375   -0.9027 H   0  0  0  0  0  0
  1  2  1  0  0  0
  2  3  2  0  0  0
  4  3  1  0  0  0
  4  5  1  0  0  0
  5  6  2  0  0  0
  1  6  1  0  0  0
  1  7  2  0  0  0
  7  8  1  0  0  0
  7  9  2  0  0  0
  2 10  1  0  0  0
  6 11  1  0  0  0
  4 12  1  0  0  0
 12 10  1  0  0  0
 12 13  1  0  0  0
 10 14  2  0  0  0
 16 13  1  0  0  0
 16 15  2  0  0  0
 16 17  1  0  0  0
 15 18  4  0  0  0
 15 19  4  0  0  0
  3 20  1  0  0  0
  5 21  1  0  0  0
  8 22  1  0  0  0
  8 23  1  0  0  0
 11 24  1  0  0  0
 11 25  1  0  0  0
 11 26  1  0  0  0
M  END
$$$$
00043001.cdx

Structure written by MVD (www.molegro.com)
 26 27  0  0  1  0            999 V2000
   -1.3803    1.0813    0.0000 C   0  0  0  0  0  0
   -1.3803    0.2563    0.0000 N   0  0  0  0  0  0
   -0.6658   -0.1562    0.0000 C   0  0  0  0  0  0
    0.0487    0.2563    0.0000 C   0  0  0  0  0  0
    0.0487    1.0813    0.0000 C   0  0  0  0  0  0
   -0.6658    1.4938    0.0000 C   0  0  0  0  0  0
   -2.0947    1.4938    0.0000 C   0  0  0  0  0  0
   -2.8092    1.0813    0.0000 N   0  0  0  0  0  0
   -2.0947    2.3188    0.0000 O   0  0  0  0  0  0
   -1.3803   -0.5687    0.0000 C   0  0  0  0  0  0
   -0.6658    2.3188    0.0000 C   0  0  0  0  0  0
    0.0487   -0.5687    0.0000 N   0  0  0  0  0  0
    0.6321   -1.1521    0.0000 O   0  0  0  0  0  0
   -1.9636   -1.1521    0.0000 O   0  0  0  0  0  0
    2.0123   -1.5219    0.0000 C   0  0  0  0  0  0
    1.4289   -0.9385    0.0000 C   0  0  0  0  0  0
    1.6425   -0.1417    0.0000 F   0  0  0  0  0  0
    1.7988   -2.3188    0.0000 O   0  0  0  0  0  0
    2.8092   -1.3084    0.0000 O   0  0  0  0  0  0
   -0.6658   -1.2462    0.0000 H   0  0  0  0  0  0
    0.9927    1.6263    0.0000 H   0  0  0  0  0  0
   -3.7012    1.5963    0.0000 H   0  0  0  0  0  0
   -2.8092    0.0513    0.0000 H   0  0  0  0  0  0
   -1.7082    2.6375    0.0000 H   0  0  0  0  0  0
   -0.1446    2.6375    0.9027 H   0  0  0  0  0  0
   -0.1446    2.6375   -0.9027 H   0  0  0  0  0  0
  1  2  1  0  0  0
  2  3  2  0  0  0
  4  3  1  0  0  0
  4  5  1  0  0  0
  5  6  2  0  0  0
  1  6  1  0  0  0
  1  7  2  0  0  0
  7  8  1  0  0  0
  7  9  2  0  0  0
  2 10  1  0  0  0
  6 11  1  0  0  0
  4 12  1  0  0  0
 12 10  1  0  0  0
 12 13  1  0  0  0
 10 14  2  0  0  0
 16 13  1  0  0  0
 16 15  2  0  0  0
 16 17  1  0  0  0
 15 18  4  0  0  0
 15 19  4  0  0  0
  3 20  1  0  0  0
  5 21  1  0  0  0
  8 22  1  0  0  0
  8 23  1  0  0  0
 11 24  1  0  0  0
 11 25  1  0  0  0
 11 26  1  0  0  0
M  END
$$$$
00045001.cdx

Structure written by MVD (www.molegro.com)
 26 27  0  0  1  0            999 V2000
   -1.3803    1.0813    0.0000 C   0  0  0  0  0  0
   -1.3803    0.2563    0.0000 N   0  0  0  0  0  0
   -0.6658   -0.1562    0.0000 C   0  0  0  0  0  0
    0.0487    0.2563    0.0000 C   0  0  0  0  0  0
    0.0487    1.0813    0.0000 C   0  0  0  0  0  0
   -0.6658    1.4938    0.0000 C   0  0  0  0  0  0
   -2.0947    1.4938    0.0000 C   0  0  0  0  0  0
   -2.8092    1.0813    0.0000 N   0  0  0  0  0  0
   -2.0947    2.3188    0.0000 O   0  0  0  0  0  0
   -1.3803   -0.5687    0.0000 C   0  0  0  0  0  0
   -0.6658    2.3188    0.0000 C   0  0  0  0  0  0
    0.0487   -0.5687    0.0000 N   0  0  0  0  0  0
    0.6321   -1.1521    0.0000 O   0  0  0  0  0  0
   -1.9636   -1.1521    0.0000 O   0  0  0  0  0  0
    2.0123   -1.5219    0.0000 C   0  0  0  0  0  0
    1.4289   -0.9385    0.0000 C   0  0  0  0  0  0
    1.6425   -0.1417    0.0000 F   0  0  0  0  0  0
    1.7988   -2.3188    0.0000 O   0  0  0  0  0  0
    2.8092   -1.3084    0.0000 O   0  0  0  0  0  0
   -0.6658   -1.2462    0.0000 H   0  0  0  0  0  0
    0.9927    1.6263    0.0000 H   0  0  0  0  0  0
   -3.7012    1.5963    0.0000 H   0  0  0  0  0  0
   -2.8092    0.0513    0.0000 H   0  0  0  0  0  0
   -1.7082    2.6375    0.0000 H   0  0  0  0  0  0
   -0.1446    2.6375    0.9027 H   0  0  0  0  0  0
   -0.1446    2.6375   -0.9027 H   0  0  0  0  0  0
  1  2  1  0  0  0
  2  3  2  0  0  0
  4  3  1  0  0  0
  4  5  1  0  0  0
  5  6  2  0  0  0
  1  6  1  0  0  0
  1  7  2  0  0  0
  7  8  1  0  0  0
  7  9  2  0  0  0
  2 10  1  0  0  0
  6 11  1  0  0  0
  4 12  1  0  0  0
 12 10  1  0  0  0
 12 13  1  0  0  0
 10 14  2  0  0  0
 13 16  1  0  0  0
 16 15  2  0  0  0
 16 17  1  0  0  0
 15 18  4  0  0  0
 15 19  4  0  0  0
  3 20  1  0  0  0
  5 21  1  0  0  0
  8 22  1  0  0  0
  8 23  1  0  0  0
 11 24  1  0  0  0
 11 25  1  0  0  0
 11 26  1  0  0  0
M  END
$$$$
00067001.cdx

Structure written by MVD (www.molegro.com)
 33 34  0  0  1  0            999 V2000
   -0.3085    1.0813    0.0000 C   0  0  0  0  0  0
   -0.3085    0.2563    0.0000 N   0  0  0  0  0  0
    0.4059   -0.1562    0.0000 C   0  0  0  0  0  0
    1.1204    0.2563    0.0000 C   0  0  0  0  0  0
    1.1204    1.0813    0.0000 C   0  0  0  0  0  0
    0.4059    1.4938    0.0000 C   0  0  0  0  0  0
   -1.0230    1.4938    0.0000 C   0  0  0  0  0  0
   -1.7375    1.0813    0.0000 N   0  0  0  0  0  0
   -1.0230    2.3188    0.0000 O   0  0  0  0  0  0
   -0.3085   -0.5687    0.0000 C   0  0  0  0  0  0
    0.4059    2.3188    0.0000 C   0  0  0  0  0  0
    1.1204   -0.5687    0.0000 N   0  0  0  0  0  0
    1.7038   -1.1521    0.0000 O   0  0  0  0  0  0
   -0.8919   -1.1521    0.0000 O   0  0  0  0  0  0
    3.0840   -1.5219    0.0000 C   0  0  0  0  0  0
    2.5006   -0.9385    0.0000 C   0  0  0  0  0  0
    2.7142   -0.1417    0.0000 F   0  0  0  0  0  0
    2.8705   -2.3188    0.0000 O   0  0  0  0  0  0
    3.8809   -1.3084    0.0000 O   0  0  0  0  0  0
   -2.4520    1.4938    0.0000 N   0  0  0  0  0  0
   -3.1664    1.0813    0.0000 C   0  0  0  0  0  0
   -3.8809    1.4938    0.0000 C   0  0  0  0  0  0
   -3.1664    0.2563    0.0000 O   0  0  0  0  0  0
    0.4059   -1.2462    0.0000 H   0  0  0  0  0  0
    2.0644    1.6263    0.0000 H   0  0  0  0  0  0
   -1.7375    0.0513    0.0000 H   0  0  0  0  0  0
   -0.6365    2.6375    0.0000 H   0  0  0  0  0  0
    0.9271    2.6375    0.9027 H   0  0  0  0  0  0
    0.9271    2.6375   -0.9027 H   0  0  0  0  0  0
   -2.4520    2.5238    0.0000 H   0  0  0  0  0  0
   -4.6781    0.7504    0.0000 H   0  0  0  0  0  0
   -3.8963    2.1045    0.9027 H   0  0  0  0  0  0
   -3.8963    2.1045   -0.9027 H   0  0  0  0  0  0
  1  2  1  0  0  0
  2  3  2  0  0  0
  4  3  1  0  0  0
  4  5  1  0  0  0
  5  6  1  0  0  0
  1  6  2  0  0  0
  1  7  1  0  0  0
  7  8  4  0  0  0
  7  9  2  0  0  0
  2 10  1  0  0  0
  6 11  1  0  0  0
  4 12  1  0  0  0
 12 10  1  0  0  0
 12 13  1  0  0  0
 10 14  2  0  0  0
 13 16  1  0  0  0
 16 15  2  0  0  0
 16 17  1  0  0  0
 15 18  4  0  0  0
 15 19  4  0  0  0
  8 20  2  0  0  0
 20 21  4  0  0  0
 21 22  1  0  0  0
 21 23  2  0  0  0
  3 24  1  0  0  0
  5 25  1  0  0  0
  8 26  1  0  0  0
 11 27  1  0  0  0
 11 28  1  0  0  0
 11 29  1  0  0  0
 20 30  1  0  0  0
 22 31  1  0  0  0
 22 32  1  0  0  0
 22 33  1  0  0  0
M  END
$$$$
00131001.cdx

Structure written by MVD (www.molegro.com)
 27 28  0  0  1  0            999 V2000
   -1.3634    0.9104    0.0000 C   0  0  0  0  0  0
   -1.3634    0.0854    0.0000 N   0  0  0  0  0  0
   -0.6489   -0.3271    0.0000 C   0  0  0  0  0  0
    0.0656    0.0854    0.0000 C   0  0  0  0  0  0
    0.0656    0.9104    0.0000 C   0  0  0  0  0  0
   -0.6489    1.3229    0.0000 C   0  0  0  0  0  0
   -2.0779    1.3229    0.0000 C   0  0  0  0  0  0
   -2.7923    0.9104    0.0000 N   0  0  0  0  0  0
   -2.0779    2.1479    0.0000 O   0  0  0  0  0  0
   -1.3634   -0.7396    0.0000 C   0  0  0  0  0  0
    0.0656   -0.7396    0.0000 N   0  0  0  0  0  0
   -1.9468   -1.3229    0.0000 O   0  0  0  0  0  0
    0.6489   -1.3229    0.0000 O   0  0  0  0  0  0
    1.3634   -0.9104    0.0000 C   0  0  0  0  0  0
    0.7800    1.3229    0.0000 C   0  0  0  0  0  0
    2.0779   -1.3229    0.0000 C   0  0  0  0  0  0
    1.3634   -0.0854    0.0000 F   0  0  0  0  0  0
    2.0779   -0.4979    0.0000 F   0  0  0  0  0  0
    2.7923   -0.9104    0.0000 O   0  0  0  0  0  0
    2.0779   -2.1479    0.0000 O   0  0  0  0  0  0
   -0.6489   -1.4171    0.0000 H   0  0  0  0  0  0
   -0.6489    2.4129    0.0000 H   0  0  0  0  0  0
   -3.6843    1.4254    0.0000 H   0  0  0  0  0  0
   -2.7923   -0.1196    0.0000 H   0  0  0  0  0  0
    0.5348    2.3850    0.0000 H   0  0  0  0  0  0
    1.3166    1.0309    0.9027 H   0  0  0  0  0  0
    1.3166    1.0309   -0.9027 H   0  0  0  0  0  0
  1  2  1  0  0  0
  2  3  2  0  0  0
  4  3  1  0  0  0
  4  5  1  0  0  0
  5  6  2  0  0  0
  1  6  1  0  0  0
  1  7  2  0  0  0
  7  8  1  0  0  0
  7  9  2  0  0  0
  2 10  1  0  0  0
  4 11  1  0  0  0
 10 11  1  0  0  0
 10 12  2  0  0  0
 11 13  1  0  0  0
 13 14  1  0  0  0
  5 15  1  0  0  0
 14 16  1  0  0  0
 14 17  1  0  0  0
 14 18  1  0  0  0
 16 19  4  0  0  0
 16 20  4  0  0  0
  3 21  1  0  0  0
  6 22  1  0  0  0
  8 23  1  0  0  0
  8 24  1  0  0  0
 15 25  1  0  0  0
 15 26  1  0  0  0
 15 27  1  0  0  0
M  END
$$$$
00074001.cdx

Structure written by MVD (www.molegro.com)
 26 27  0  0  1  0            999 V2000
   -1.3803    1.0813    0.0000 C   0  0  0  0  0  0
   -1.3803    0.2563    0.0000 N   0  0  0  0  0  0
   -0.6658   -0.1562    0.0000 C   0  0  0  0  0  0
    0.0487    0.2563    0.0000 C   0  0  0  0  0  0
    0.0487    1.0813    0.0000 C   0  0  0  0  0  0
   -0.6658    1.4938    0.0000 C   0  0  0  0  0  0
   -2.0947    1.4938    0.0000 C   0  0  0  0  0  0
   -2.8092    1.0813    0.0000 N   0  0  0  0  0  0
   -2.0947    2.3188    0.0000 O   0  0  0  0  0  0
   -1.3803   -0.5687    0.0000 C   0  0  0  0  0  0
    0.0487   -0.5687    0.0000 N   0  0  0  0  0  0
    0.6321   -1.1521    0.0000 O   0  0  0  0  0  0
   -1.9636   -1.1521    0.0000 O   0  0  0  0  0  0
    2.0123   -1.5219    0.0000 C   0  0  0  0  0  0
    1.4289   -0.9385    0.0000 C   0  0  0  0  0  0
    1.6425   -0.1417    0.0000 F   0  0  0  0  0  0
    1.7988   -2.3188    0.0000 O   0  0  0  0  0  0
    2.8092   -1.3084    0.0000 O   0  0  0  0  0  0
    0.7632    1.4938    0.0000 C   0  0  0  0  0  0
   -0.6658   -1.2462    0.0000 H   0  0  0  0  0  0
   -0.6658    2.5838    0.0000 H   0  0  0  0  0  0
   -3.7012    1.5963    0.0000 H   0  0  0  0  0  0
   -2.8092    0.0513    0.0000 H   0  0  0  0  0  0
    0.5180    2.5559    0.0000 H   0  0  0  0  0  0
    1.2998    1.2018    0.9027 H   0  0  0  0  0  0
    1.2998    1.2018   -0.9027 H   0  0  0  0  0  0
  1  2  1  0  0  0
  2  3  2  0  0  0
  4  3  1  0  0  0
  4  5  1  0  0  0
  5  6  2  0  0  0
  1  6  1  0  0  0
  1  7  2  0  0  0
  7  8  1  0  0  0
  7  9  2  0  0  0
  2 10  1  0  0  0
  4 11  1  0  0  0
 11 10  1  0  0  0
 11 12  1  0  0  0
 10 13  2  0  0  0
 15 12  1  0  0  0
 15 14  2  0  0  0
 15 16  1  0  0  0
 14 17  4  0  0  0
 14 18  4  0  0  0
  5 19  1  0  0  0
  3 20  1  0  0  0
  6 21  1  0  0  0
  8 22  1  0  0  0
  8 23  1  0  0  0
 19 24  1  0  0  0
 19 25  1  0  0  0
 19 26  1  0  0  0
M  END
$$$$
00122001.cdx

Structure written by MVD (www.molegro.com)
 29 30  0  0  1  0            999 V2000
   -0.3085    1.0813    0.0000 C   0  0  0  0  0  0
   -0.3085    0.2563    0.0000 N   0  0  0  0  0  0
    0.4059   -0.1562    0.0000 C   0  0  0  0  0  0
    1.1204    0.2563    0.0000 C   0  0  0  0  0  0
    1.1204    1.0813    0.0000 C   0  0  0  0  0  0
    0.4059    1.4938    0.0000 C   0  0  0  0  0  0
    0.4059    2.3188    0.0000 C   0  0  0  0  0  0
   -1.0230    1.4938    0.0000 C   0  0  0  0  0  0
   -1.7375    1.0813    0.0000 N   0  0  0  0  0  0
   -1.0230    2.3188    0.0000 O   0  0  0  0  0  0
   -0.3085   -0.5687    0.0000 C   0  0  0  0  0  0
    1.1204   -0.5687    0.0000 N   0  0  0  0  0  0
   -0.8919   -1.1521    0.0000 O   0  0  0  0  0  0
    1.7038   -1.1521    0.0000 O   0  0  0  0  0  0
    3.0840   -1.5219    0.0000 C   0  0  0  0  0  0
    2.5006   -0.9385    0.0000 C   0  0  0  0  0  0
    2.7142   -0.1417    0.0000 F   0  0  0  0  0  0
    2.8705   -2.3188    0.0000 O   0  0  0  0  0  0
    3.8809   -1.3084    0.0000 O   0  0  0  0  0  0
   -2.4520    1.4938    0.0000 C   0  0  0  0  0  0
   -3.1664    1.0813    0.0000 C   0  0  0  0  0  0
   -3.8809    0.6688    0.0000 N   0  0  0  0  0  0
    0.4059   -1.2462    0.0000 H   0  0  0  0  0  0
    2.0644    1.6263    0.0000 H   0  0  0  0  0  0
   -0.6365    2.6375    0.0000 H   0  0  0  0  0  0
    0.9271    2.6375    0.9027 H   0  0  0  0  0  0
    0.9271    2.6375   -0.9027 H   0  0  0  0  0  0
   -1.7375    0.0513    0.0000 H   0  0  0  0  0  0
   -2.4520    2.5838    0.0000 H   0  0  0  0  0  0
  1  2  1  0  0  0
  2  3  2  0  0  0
  4  3  1  0  0  0
  4  5  1  0  0  0
  5  6  1  0  0  0
  1  6  2  0  0  0
  6  7  1  0  0  0
  1  8  1  0  0  0
  8  9  4  0  0  0
  8 10  2  0  0  0
  2 11  1  0  0  0
  4 12  1  0  0  0
 11 12  1  0  0  0
 11 13  2  0  0  0
 12 14  1  0  0  0
 16 14  1  0  0  0
 16 15  2  0  0  0
 16 17  1  0  0  0
 15 18  4  0  0  0
 15 19  4  0  0  0
  9 20  2  0  0  0
 20 21  1  0  0  0
 21 22  1  0  0  0
  3 23  1  0  0  0
  5 24  1  0  0  0
  7 25  1  0  0  0
  7 26  1  0  0  0
  7 27  1  0  0  0
  9 28  1  0  0  0
 20 29  1  0  0  0
M  END
$$$$
00128001.cdx

Structure written by MVD (www.molegro.com)
 35 36  0  0  1  0            999 V2000
    0.0487    1.0813    0.0000 C   0  0  0  0  0  0
    0.0487    0.2563    0.0000 N   0  0  0  0  0  0
    0.7632   -0.1562    0.0000 C   0  0  0  0  0  0
    1.4776    0.2563    0.0000 C   0  0  0  0  0  0
    1.4776    1.0813    0.0000 C   0  0  0  0  0  0
    0.7632    1.4938    0.0000 C   0  0  0  0  0  0
    0.7632    2.3188    0.0000 C   0  0  0  0  0  0
   -0.6658    1.4938    0.0000 C   0  0  0  0  0  0
   -1.3803    1.0813    0.0000 N   0  0  0  0  0  0
   -0.6658    2.3188    0.0000 O   0  0  0  0  0  0
    0.0487   -0.5687    0.0000 C   0  0  0  0  0  0
    1.4776   -0.5687    0.0000 N   0  0  0  0  0  0
   -0.5347   -1.1521    0.0000 O   0  0  0  0  0  0
    2.0610   -1.1521    0.0000 O   0  0  0  0  0  0
    3.4412   -1.5219    0.0000 C   0  0  0  0  0  0
    2.8579   -0.9385    0.0000 C   0  0  0  0  0  0
    3.0714   -0.1417    0.0000 F   0  0  0  0  0  0
    3.2277   -2.3188    0.0000 O   0  0  0  0  0  0
    4.2381   -1.3084    0.0000 O   0  0  0  0  0  0
   -2.0947    1.4938    0.0000 C   0  0  0  0  0  0
   -2.8092    1.0813    0.0000 N   0  0  0  0  0  0
   -3.5237    1.4938    0.0000 C   0  0  0  0  0  0
   -4.2381    1.0813    0.0000 C   0  0  0  0  0  0
   -3.5237    2.3188    0.0000 O   0  0  0  0  0  0
    0.7632   -1.2462    0.0000 H   0  0  0  0  0  0
    2.4216    1.6263    0.0000 H   0  0  0  0  0  0
   -0.2792    2.6375    0.0000 H   0  0  0  0  0  0
    1.2844    2.6375    0.9027 H   0  0  0  0  0  0
    1.2844    2.6375   -0.9027 H   0  0  0  0  0  0
   -1.3803    0.0513    0.0000 H   0  0  0  0  0  0
   -2.0947    2.5838    0.0000 H   0  0  0  0  0  0
   -2.8092    0.0513    0.0000 H   0  0  0  0  0  0
   -5.0353    1.8246    0.0000 H   0  0  0  0  0  0
   -4.2535    0.4706   -0.9027 H   0  0  0  0  0  0
   -4.2535    0.4706    0.9027 H   0  0  0  0  0  0
  1  2  1  0  0  0
  2  3  2  0  0  0
  4  3  1  0  0  0
  4  5  1  0  0  0
  5  6  2  0  0  0
  1  6  1  0  0  0
  6  7  1  0  0  0
  1  8  2  0  0  0
  8  9  4  0  0  0
  8 10  2  0  0  0
  2 11  1  0  0  0
  4 12  1  0  0  0
 11 12  1  0  0  0
 11 13  2  0  0  0
 12 14  1  0  0  0
 16 14  1  0  0  0
 16 15  2  0  0  0
 16 17  1  0  0  0
 15 18  4  0  0  0
 15 19  4  0  0  0
  9 20  2  0  0  0
 20 21  1  0  0  0
 21 22  4  0  0  0
 22 23  1  0  0  0
 22 24  2  0  0  0
  3 25  1  0  0  0
  5 26  1  0  0  0
  7 27  1  0  0  0
  7 28  1  0  0  0
  7 29  1  0  0  0
  9 30  1  0  0  0
 20 31  1  0  0  0
 21 32  1  0  0  0
 23 33  1  0  0  0
 23 34  1  0  0  0
 23 35  1  0  0  0
M  END
$$$$
00050001.cdx

Structure written by MVD (www.molegro.com)
 26 27  0  0  1  0            999 V2000
   -1.3803    1.0813    0.0000 C   0  0  0  0  0  0
   -1.3803    0.2563    0.0000 N   0  0  0  0  0  0
   -0.6658   -0.1562    0.0000 C   0  0  0  0  0  0
    0.0487    0.2563    0.0000 C   0  0  0  0  0  0
    0.0487    1.0813    0.0000 C   0  0  0  0  0  0
   -0.6658    1.4938    0.0000 C   0  0  0  0  0  0
   -2.0947    1.4938    0.0000 C   0  0  0  0  0  0
   -2.8092    1.0813    0.0000 N   0  0  0  0  0  0
   -2.0947    2.3188    0.0000 O   0  0  0  0  0  0
   -1.3803   -0.5687    0.0000 C   0  0  0  0  0  0
   -0.6658    2.3188    0.0000 C   0  0  0  0  0  0
    0.0487   -0.5687    0.0000 N   0  0  0  0  0  0
    0.6321   -1.1521    0.0000 O   0  0  0  0  0  0
   -1.9636   -1.1521    0.0000 O   0  0  0  0  0  0
    2.0123   -1.5219    0.0000 C   0  0  0  0  0  0
    1.4289   -0.9385    0.0000 C   0  0  0  0  0  0
    1.7988   -2.3188    0.0000 O   0  0  0  0  0  0
    2.8092   -1.3084    0.0000 O   0  0  0  0  0  0
   -0.6658   -1.2462    0.0000 H   0  0  0  0  0  0
    0.9927    1.6263    0.0000 H   0  0  0  0  0  0
   -3.7012    1.5963    0.0000 H   0  0  0  0  0  0
   -2.8092    0.0513    0.0000 H   0  0  0  0  0  0
   -1.7082    2.6375    0.0000 H   0  0  0  0  0  0
   -0.1446    2.6375    0.9027 H   0  0  0  0  0  0
   -0.1446    2.6375   -0.9027 H   0  0  0  0  0  0
    1.7110    0.1144    0.0000 H   0  0  0  0  0  0
  1  2  1  0  0  0
  2  3  2  0  0  0
  4  3  1  0  0  0
  4  5  1  0  0  0
  5  6  2  0  0  0
  1  6  1  0  0  0
  1  7  2  0  0  0
  7  8  1  0  0  0
  7  9  2  0  0  0
  2 10  1  0  0  0
  6 11  1  0  0  0
  4 12  1  0  0  0
 12 10  1  0  0  0
 12 13  1  0  0  0
 10 14  2  0  0  0
 13 16  1  0  0  0
 16 15  2  0  0  0
 15 17  4  0  0  0
 15 18  4  0  0  0
  3 19  1  0  0  0
  5 20  1  0  0  0
  8 21  1  0  0  0
  8 22  1  0  0  0
 11 23  1  0  0  0
 11 24  1  0  0  0
 11 25  1  0  0  0
 16 26  1  0  0  0
M  END
$$$$
00133001.cdx

Structure written by MVD (www.molegro.com)
 26 27  0  0  1  0            999 V2000
   -1.3634    0.9104    0.0000 C   0  0  0  0  0  0
   -1.3634    0.0854    0.0000 N   0  0  0  0  0  0
   -0.6489   -0.3271    0.0000 C   0  0  0  0  0  0
    0.0656    0.0854    0.0000 C   0  0  0  0  0  0
    0.0656    0.9104    0.0000 C   0  0  0  0  0  0
   -0.6489    1.3229    0.0000 C   0  0  0  0  0  0
   -2.0779    1.3229    0.0000 C   0  0  0  0  0  0
   -2.7923    0.9104    0.0000 N   0  0  0  0  0  0
   -2.0779    2.1479    0.0000 O   0  0  0  0  0  0
   -1.3634   -0.7396    0.0000 C   0  0  0  0  0  0
    0.0656   -0.7396    0.0000 N   0  0  0  0  0  0
   -1.9468   -1.3229    0.0000 O   0  0  0  0  0  0
    0.6489   -1.3229    0.0000 O   0  0  0  0  0  0
    1.3634   -0.9104    0.0000 C   0  0  0  0  0  0
    0.7800    1.3229    0.0000 C   0  0  0  0  0  0
    2.0779   -1.3229    0.0000 C   0  0  0  0  0  0
    2.7923   -0.9104    0.0000 O   0  0  0  0  0  0
    2.0779   -2.1479    0.0000 O   0  0  0  0  0  0
   -0.6489   -1.4171    0.0000 H   0  0  0  0  0  0
   -0.6489    2.4129    0.0000 H   0  0  0  0  0  0
   -3.6843    1.4254    0.0000 H   0  0  0  0  0  0
   -2.7923   -0.1196    0.0000 H   0  0  0  0  0  0
    1.3634    0.1796    0.0000 H   0  0  0  0  0  0
    0.5348    2.3850    0.0000 H   0  0  0  0  0  0
    1.3166    1.0309    0.9027 H   0  0  0  0  0  0
    1.3166    1.0309   -0.9027 H   0  0  0  0  0  0
  1  2  1  0  0  0
  2  3  2  0  0  0
  4  3  1  0  0  0
  4  5  1  0  0  0
  5  6  2  0  0  0
  1  6  1  0  0  0
  1  7  2  0  0  0
  7  8  1  0  0  0
  7  9  2  0  0  0
  2 10  1  0  0  0
  4 11  1  0  0  0
 10 11  1  0  0  0
 10 12  2  0  0  0
 11 13  1  0  0  0
 13 14  1  0  0  0
  5 15  1  0  0  0
 14 16  2  0  0  0
 16 17  4  0  0  0
 16 18  4  0  0  0
  3 19  1  0  0  0
  6 20  1  0  0  0
  8 21  1  0  0  0
  8 22  1  0  0  0
 14 23  1  0  0  0
 15 24  1  0  0  0
 15 25  1  0  0  0
 15 26  1  0  0  0
M  END
$$$$
00111001.cdx

Structure written by MVD (www.molegro.com)
 34 35  0  0  1  0            999 V2000
    0.0487    1.0813    0.0000 C   0  0  0  0  0  0
    0.0487    0.2563    0.0000 N   0  0  0  0  0  0
    0.7632   -0.1562    0.0000 C   0  0  0  0  0  0
    1.4776    0.2563    0.0000 C   0  0  0  0  0  0
    1.4776    1.0813    0.0000 C   0  0  0  0  0  0
    0.7632    1.4938    0.0000 C   0  0  0  0  0  0
    0.7632    2.3188    0.0000 C   0  0  0  0  0  0
   -0.6658    1.4938    0.0000 C   0  0  0  0  0  0
   -1.3803    1.0813    0.0000 N   0  0  0  0  0  0
   -0.6658    2.3188    0.0000 O   0  0  0  0  0  0
    0.0487   -0.5687    0.0000 C   0  0  0  0  0  0
    1.4776   -0.5687    0.0000 N   0  0  0  0  0  0
   -0.5347   -1.1521    0.0000 O   0  0  0  0  0  0
    2.0610   -1.1521    0.0000 O   0  0  0  0  0  0
    3.4412   -1.5219    0.0000 C   0  0  0  0  0  0
    2.8579   -0.9385    0.0000 C   0  0  0  0  0  0
    3.0714   -0.1417    0.0000 F   0  0  0  0  0  0
    3.2277   -2.3188    0.0000 O   0  0  0  0  0  0
    4.2381   -1.3084    0.0000 O   0  0  0  0  0  0
   -2.0947    1.4938    0.0000 C   0  0  0  0  0  0
   -2.8092    1.0813    0.0000 C   0  0  0  0  0  0
   -3.5237    1.4938    0.0000 C   0  0  0  0  0  0
   -4.2381    1.0813    0.0000 N   0  0  0  0  0  0
   -3.5237    2.3188    0.0000 O   0  0  0  0  0  0
    0.7632   -1.2462    0.0000 H   0  0  0  0  0  0
    2.4216    1.6263    0.0000 H   0  0  0  0  0  0
   -0.2792    2.6375    0.0000 H   0  0  0  0  0  0
    1.2844    2.6375    0.9027 H   0  0  0  0  0  0
    1.2844    2.6375   -0.9027 H   0  0  0  0  0  0
   -1.3803    0.0513    0.0000 H   0  0  0  0  0  0
   -2.0947    2.5838    0.0000 H   0  0  0  0  0  0
   -2.8092   -0.0087    0.0000 H   0  0  0  0  0  0
   -5.1301    1.5963    0.0000 H   0  0  0  0  0  0
   -4.2381    0.0513    0.0000 H   0  0  0  0  0  0
  1  2  1  0  0  0
  2  3  2  0  0  0
  4  3  1  0  0  0
  4  5  1  0  0  0
  5  6  2  0  0  0
  1  6  1  0  0  0
  6  7  1  0  0  0
  1  8  2  0  0  0
  8  9  4  0  0  0
  8 10  2  0  0  0
  2 11  1  0  0  0
  4 12  1  0  0  0
 11 12  1  0  0  0
 11 13  2  0  0  0
 12 14  1  0  0  0
 16 14  1  0  0  0
 16 15  2  0  0  0
 16 17  1  0  0  0
 15 18  4  0  0  0
 15 19  4  0  0  0
  9 20  2  0  0  0
 20 21  1  0  0  0
 21 22  1  0  0  0
 22 23  1  0  0  0
 22 24  2  0  0  0
  3 25  1  0  0  0
  5 26  1  0  0  0
  7 27  1  0  0  0
  7 28  1  0  0  0
  7 29  1  0  0  0
  9 30  1  0  0  0
 20 31  1  0  0  0
 21 32  1  0  0  0
 23 33  1  0  0  0
 23 34  1  0  0  0
M  END
$$$$
00073001.cdx

Structure written by MVD (www.molegro.com)
 26 27  0  0  1  0            999 V2000
   -1.3803    1.0813    0.0000 C   0  0  0  0  0  0
   -1.3803    0.2563    0.0000 N   0  0  0  0  0  0
   -0.6658   -0.1562    0.0000 C   0  0  0  0  0  0
    0.0487    0.2563    0.0000 C   0  0  0  0  0  0
    0.0487    1.0813    0.0000 C   0  0  0  0  0  0
   -0.6658    1.4938    0.0000 C   0  0  0  0  0  0
   -2.0947    1.4938    0.0000 C   0  0  0  0  0  0
   -2.8092    1.0813    0.0000 N   0  0  0  0  0  0
   -2.0947    2.3188    0.0000 O   0  0  0  0  0  0
   -1.3803   -0.5687    0.0000 C   0  0  0  0  0  0
    0.0487   -0.5687    0.0000 N   0  0  0  0  0  0
    0.6321   -1.1521    0.0000 O   0  0  0  0  0  0
   -1.9636   -1.1521    0.0000 O   0  0  0  0  0  0
    2.0123   -1.5219    0.0000 C   0  0  0  0  0  0
    1.4289   -0.9385    0.0000 C   0  0  0  0  0  0
    1.6425   -0.1417    0.0000 F   0  0  0  0  0  0
    1.7988   -2.3188    0.0000 O   0  0  0  0  0  0
    2.8092   -1.3084    0.0000 O   0  0  0  0  0  0
    0.7632    1.4938    0.0000 C   0  0  0  0  0  0
   -0.6658   -1.2462    0.0000 H   0  0  0  0  0  0
   -0.6658    2.5838    0.0000 H   0  0  0  0  0  0
   -3.7012    1.5963    0.0000 H   0  0  0  0  0  0
   -2.8092    0.0513    0.0000 H   0  0  0  0  0  0
    0.5180    2.5559    0.0000 H   0  0  0  0  0  0
    1.2998    1.2018    0.9027 H   0  0  0  0  0  0
    1.2998    1.2018   -0.9027 H   0  0  0  0  0  0
  1  2  1  0  0  0
  2  3  2  0  0  0
  4  3  1  0  0  0
  4  5  1  0  0  0
  5  6  2  0  0  0
  1  6  1  0  0  0
  1  7  2  0  0  0
  7  8  1  0  0  0
  7  9  2  0  0  0
  2 10  1  0  0  0
  4 11  1  0  0  0
 11 10  1  0  0  0
 11 12  1  0  0  0
 10 13  2  0  0  0
 15 12  1  0  0  0
 15 14  2  0  0  0
 15 16  1  0  0  0
 14 17  4  0  0  0
 14 18  4  0  0  0
  5 19  1  0  0  0
  3 20  1  0  0  0
  6 21  1  0  0  0
  8 22  1  0  0  0
  8 23  1  0  0  0
 19 24  1  0  0  0
 19 25  1  0  0  0
 19 26  1  0  0  0
M  END
$$$$
00108001.cdx

Structure written by MVD (www.molegro.com)
 34 36  0  0  1  0            999 V2000
   -0.0129    1.0813    0.0000 C   0  0  0  0  0  0
   -0.0129    0.2563    0.0000 N   0  0  0  0  0  0
    0.7015   -0.1562    0.0000 C   0  0  0  0  0  0
    1.4160    0.2563    0.0000 C   0  0  0  0  0  0
    1.4160    1.0813    0.0000 C   0  0  0  0  0  0
    0.7015    1.4938    0.0000 C   0  0  0  0  0  0
    0.7015    2.3188    0.0000 C   0  0  0  0  0  0
   -0.7274    1.4938    0.0000 C   0  0  0  0  0  0
   -1.4419    1.0813    0.0000 N   0  0  0  0  0  0
   -0.7274    2.3188    0.0000 O   0  0  0  0  0  0
   -0.0129   -0.5687    0.0000 C   0  0  0  0  0  0
    1.4160   -0.5687    0.0000 N   0  0  0  0  0  0
   -0.5963   -1.1521    0.0000 O   0  0  0  0  0  0
    1.9994   -1.1521    0.0000 O   0  0  0  0  0  0
    3.3796   -1.5219    0.0000 C   0  0  0  0  0  0
    2.7963   -0.9385    0.0000 C   0  0  0  0  0  0
    3.0098   -0.1417    0.0000 F   0  0  0  0  0  0
    3.1661   -2.3188    0.0000 O   0  0  0  0  0  0
    4.1765   -1.3084    0.0000 O   0  0  0  0  0  0
   -2.1563    1.4938    0.0000 C   0  0  0  0  0  0
   -2.8708    1.0813    0.0000 C   0  0  0  0  0  0
   -3.6245    1.4169    0.0000 N   0  0  0  0  0  0
   -4.1765    0.8038    0.0000 C   0  0  0  0  0  0
   -3.7640    0.0893    0.0000 C   0  0  0  0  0  0
   -2.9570    0.2608    0.0000 O   0  0  0  0  0  0
    0.7015   -1.2462    0.0000 H   0  0  0  0  0  0
    2.3600    1.6263    0.0000 H   0  0  0  0  0  0
   -0.3409    2.6375    0.0000 H   0  0  0  0  0  0
    1.2227    2.6375    0.9027 H   0  0  0  0  0  0
    1.2227    2.6375   -0.9027 H   0  0  0  0  0  0
   -1.4419    0.0513    0.0000 H   0  0  0  0  0  0
   -2.1563    2.5838    0.0000 H   0  0  0  0  0  0
   -5.2605    0.9177    0.0000 H   0  0  0  0  0  0
   -4.2074   -0.9065    0.0000 H   0  0  0  0  0  0
  1  2  1  0  0  0
  2  3  2  0  0  0
  4  3  1  0  0  0
  4  5  1  0  0  0
  5  6  1  0  0  0
  1  6  2  0  0  0
  6  7  1  0  0  0
  1  8  1  0  0  0
  8  9  4  0  0  0
  8 10  2  0  0  0
  2 11  1  0  0  0
  4 12  1  0  0  0
 11 12  1  0  0  0
 11 13  2  0  0  0
 12 14  1  0  0  0
 16 14  1  0  0  0
 16 15  2  0  0  0
 16 17  1  0  0  0
 15 18  4  0  0  0
 15 19  4  0  0  0
  9 20  2  0  0  0
 20 21  1  0  0  0
 21 22  4  0  0  0
 22 23  4  0  0  0
 23 24  4  0  0  0
 24 25  4  0  0  0
 25 21  4  0  0  0
  3 26  1  0  0  0
  5 27  1  0  0  0
  7 28  1  0  0  0
  7 29  1  0  0  0
  7 30  1  0  0  0
  9 31  1  0  0  0
 20 32  1  0  0  0
 23 33  1  0  0  0
 24 34  1  0  0  0
M  END
$$$$
00110001.cdx

Structure written by MVD (www.molegro.com)
 35 37  0  0  1  0            999 V2000
    0.1040    1.0813    0.0000 C   0  0  0  0  0  0
    0.1040    0.2563    0.0000 N   0  0  0  0  0  0
    0.8184   -0.1562    0.0000 C   0  0  0  0  0  0
    1.5329    0.2563    0.0000 C   0  0  0  0  0  0
    1.5329    1.0813    0.0000 C   0  0  0  0  0  0
    0.8184    1.4938    0.0000 C   0  0  0  0  0  0
    0.8184    2.3188    0.0000 C   0  0  0  0  0  0
   -0.6105    1.4938    0.0000 C   0  0  0  0  0  0
   -1.3250    1.0813    0.0000 N   0  0  0  0  0  0
   -0.6105    2.3188    0.0000 O   0  0  0  0  0  0
    0.1040   -0.5687    0.0000 C   0  0  0  0  0  0
    1.5329   -0.5687    0.0000 N   0  0  0  0  0  0
   -0.4794   -1.1521    0.0000 O   0  0  0  0  0  0
    2.1163   -1.1521    0.0000 O   0  0  0  0  0  0
    3.4965   -1.5219    0.0000 C   0  0  0  0  0  0
    2.9131   -0.9385    0.0000 C   0  0  0  0  0  0
    3.1267   -0.1417    0.0000 F   0  0  0  0  0  0
    3.2830   -2.3188    0.0000 O   0  0  0  0  0  0
    4.2934   -1.3084    0.0000 O   0  0  0  0  0  0
   -2.0395    1.4938    0.0000 O   0  0  0  0  0  0
   -2.7539    1.0813    0.0000 C   0  0  0  0  0  0
   -3.4684    1.4938    0.0000 C   0  0  0  0  0  0
   -3.8809    2.2083    0.0000 C   0  0  0  0  0  0
   -4.2934    1.4938    0.0000 C   0  0  0  0  0  0
    0.8184   -1.2462    0.0000 H   0  0  0  0  0  0
    2.4769    1.6263    0.0000 H   0  0  0  0  0  0
   -0.2240    2.6375    0.0000 H   0  0  0  0  0  0
    1.3396    2.6375    0.9027 H   0  0  0  0  0  0
    1.3396    2.6375   -0.9027 H   0  0  0  0  0  0
   -1.3250    0.0513    0.0000 H   0  0  0  0  0  0
   -2.7539   -0.0087    0.0000 H   0  0  0  0  0  0
   -3.8809    3.1523   -0.5450 H   0  0  0  0  0  0
   -3.8809    3.1523    0.5450 H   0  0  0  0  0  0
   -5.1109    1.0218   -0.5450 H   0  0  0  0  0  0
   -5.1109    1.0218    0.5450 H   0  0  0  0  0  0
  1  2  1  0  0  0
  2  3  2  0  0  0
  4  3  1  0  0  0
  4  5  1  0  0  0
  5  6  1  0  0  0
  1  6  2  0  0  0
  6  7  1  0  0  0
  1  8  1  0  0  0
  8  9  4  0  0  0
  8 10  2  0  0  0
  2 11  1  0  0  0
  4 12  1  0  0  0
 11 12  1  0  0  0
 11 13  2  0  0  0
 12 14  1  0  0  0
 16 14  1  0  0  0
 16 15  2  0  0  0
 16 17  1  0  0  0
 15 18  4  0  0  0
 15 19  4  0  0  0
  9 20  1  0  0  0
 20 21  1  0  0  0
 21 22  2  0  0  0
 22 23  1  0  0  0
 23 24  1  0  0  0
 24 22  1  0  0  0
  3 25  1  0  0  0
  5 26  1  0  0  0
  7 27  1  0  0  0
  7 28  1  0  0  0
  7 29  1  0  0  0
  9 30  1  0  0  0
 21 31  1  0  0  0
 23 32  1  0  0  0
 23 33  1  0  0  0
 24 34  1  0  0  0
 24 35  1  0  0  0
M  END
$$$$
00109001.cdx

Structure written by MVD (www.molegro.com)
 36 38  0  0  1  0            999 V2000
    0.0487    1.0813    0.0000 C   0  0  0  0  0  0
    0.0487    0.2563    0.0000 N   0  0  0  0  0  0
    0.7632   -0.1562    0.0000 C   0  0  0  0  0  0
    1.4776    0.2563    0.0000 C   0  0  0  0  0  0
    1.4776    1.0813    0.0000 C   0  0  0  0  0  0
    0.7632    1.4938    0.0000 C   0  0  0  0  0  0
    0.7632    2.3188    0.0000 C   0  0  0  0  0  0
   -0.6658    1.4938    0.0000 C   0  0  0  0  0  0
   -1.3803    1.0813    0.0000 N   0  0  0  0  0  0
   -0.6658    2.3188    0.0000 O   0  0  0  0  0  0
    0.0487   -0.5687    0.0000 C   0  0  0  0  0  0
    1.4776   -0.5687    0.0000 N   0  0  0  0  0  0
   -0.5347   -1.1521    0.0000 O   0  0  0  0  0  0
    2.0610   -1.1521    0.0000 O   0  0  0  0  0  0
    3.4412   -1.5219    0.0000 C   0  0  0  0  0  0
    2.8579   -0.9385    0.0000 C   0  0  0  0  0  0
    3.0714   -0.1417    0.0000 F   0  0  0  0  0  0
    3.2277   -2.3188    0.0000 O   0  0  0  0  0  0
    4.2381   -1.3084    0.0000 O   0  0  0  0  0  0
   -2.0947    1.4938    0.0000 C   0  0  0  0  0  0
   -2.8092    1.0813    0.0000 C   0  0  0  0  0  0
   -3.5237    1.4938    0.0000 N   0  0  0  0  0  0
   -4.2381    1.0813    0.0000 C   0  0  0  0  0  0
   -4.2381    0.2563    0.0000 C   0  0  0  0  0  0
   -3.5237   -0.1562    0.0000 N   0  0  0  0  0  0
   -2.8092    0.2563    0.0000 C   0  0  0  0  0  0
    0.7632   -1.2462    0.0000 H   0  0  0  0  0  0
    2.4216    1.6263    0.0000 H   0  0  0  0  0  0
   -0.2792    2.6375    0.0000 H   0  0  0  0  0  0
    1.2844    2.6375    0.9027 H   0  0  0  0  0  0
    1.2844    2.6375   -0.9027 H   0  0  0  0  0  0
   -1.3803    0.0513    0.0000 H   0  0  0  0  0  0
   -2.0947    2.5838    0.0000 H   0  0  0  0  0  0
   -5.1821    1.6263    0.0000 H   0  0  0  0  0  0
   -5.1821   -0.2887    0.0000 H   0  0  0  0  0  0
   -1.8652   -0.2887    0.0000 H   0  0  0  0  0  0
  1  2  1  0  0  0
  2  3  2  0  0  0
  4  3  1  0  0  0
  4  5  1  0  0  0
  5  6  2  0  0  0
  1  6  1  0  0  0
  6  7  1  0  0  0
  1  8  2  0  0  0
  8  9  4  0  0  0
  8 10  2  0  0  0
  2 11  1  0  0  0
  4 12  1  0  0  0
 11 12  1  0  0  0
 11 13  2  0  0  0
 12 14  1  0  0  0
 16 14  1  0  0  0
 16 15  2  0  0  0
 16 17  1  0  0  0
 15 18  4  0  0  0
 15 19  4  0  0  0
  9 20  2  0  0  0
 20 21  1  0  0  0
 21 22  4  0  0  0
 22 23  4  0  0  0
 23 24  4  0  0  0
 24 25  4  0  0  0
 25 26  4  0  0  0
 26 21  4  0  0  0
  3 27  1  0  0  0
  5 28  1  0  0  0
  7 29  1  0  0  0
  7 30  1  0  0  0
  7 31  1  0  0  0
  9 32  1  0  0  0
 20 33  1  0  0  0
 23 34  1  0  0  0
 24 35  1  0  0  0
 26 36  1  0  0  0
M  END
$$$$
00112001.cdx

Structure written by MVD (www.molegro.com)
 39 41  0  0  1  0            999 V2000
    0.3973    0.3790    0.0000 C   0  0  0  0  0  0
    0.3973   -0.4460    0.0000 N   0  0  0  0  0  0
    1.1118   -0.8585    0.0000 C   0  0  0  0  0  0
    1.8263   -0.4460    0.0000 C   0  0  0  0  0  0
    1.8263    0.3790    0.0000 C   0  0  0  0  0  0
    1.1118    0.7915    0.0000 C   0  0  0  0  0  0
    1.1118    1.6165    0.0000 C   0  0  0  0  0  0
   -0.3172    0.7915    0.0000 C   0  0  0  0  0  0
   -1.0316    0.3790    0.0000 N   0  0  0  0  0  0
   -0.3172    1.6165    0.0000 O   0  0  0  0  0  0
    0.3973   -1.2710    0.0000 C   0  0  0  0  0  0
    1.8263   -1.2710    0.0000 N   0  0  0  0  0  0
   -0.1860   -1.8543    0.0000 O   0  0  0  0  0  0
    2.4096   -1.8543    0.0000 O   0  0  0  0  0  0
    3.7899   -2.2242    0.0000 C   0  0  0  0  0  0
    3.2065   -1.6408    0.0000 C   0  0  0  0  0  0
    3.4200   -0.8439    0.0000 F   0  0  0  0  0  0
    3.5763   -3.0210    0.0000 O   0  0  0  0  0  0
    4.5868   -2.0106    0.0000 O   0  0  0  0  0  0
   -1.7461    0.7915    0.0000 O   0  0  0  0  0  0
   -1.7461    1.6165    0.0000 C   0  0  0  0  0  0
   -2.4606    2.0290    0.0000 C   0  0  0  0  0  0
   -2.5468    2.8495    0.0000 C   0  0  0  0  0  0
   -3.3538    3.0210    0.0000 C   0  0  0  0  0  0
   -3.7663    2.3066    0.0000 C   0  0  0  0  0  0
   -3.2142    1.6935    0.0000 N   0  0  0  0  0  0
   -4.5868    2.2203    0.0000 O   0  0  0  0  0  0
    1.1118   -1.9485    0.0000 H   0  0  0  0  0  0
    2.7703    0.9240    0.0000 H   0  0  0  0  0  0
    0.0694    1.9352    0.0000 H   0  0  0  0  0  0
    1.6330    1.9352    0.9027 H   0  0  0  0  0  0
    1.6330    1.9352   -0.9027 H   0  0  0  0  0  0
   -1.0316   -0.6510    0.0000 H   0  0  0  0  0  0
   -0.8021    2.1615    0.0000 H   0  0  0  0  0  0
   -2.0706    3.2782   -0.8818 H   0  0  0  0  0  0
   -2.0706    3.2782    0.8818 H   0  0  0  0  0  0
   -3.6144    3.6063   -0.8818 H   0  0  0  0  0  0
   -3.6144    3.6062    0.8819 H   0  0  0  0  0  0
   -3.4283    0.6860    0.0000 H   0  0  0  0  0  0
  1  2  1  0  0  0
  2  3  2  0  0  0
  4  3  1  0  0  0
  4  5  1  0  0  0
  5  6  1  0  0  0
  1  6  2  0  0  0
  6  7  1  0  0  0
  1  8  1  0  0  0
  8  9  4  0  0  0
  8 10  2  0  0  0
  2 11  1  0  0  0
  4 12  1  0  0  0
 11 12  1  0  0  0
 11 13  2  0  0  0
 12 14  1  0  0  0
 16 14  1  0  0  0
 16 15  2  0  0  0
 16 17  1  0  0  0
 15 18  4  0  0  0
 15 19  4  0  0  0
  9 20  1  0  0  0
 20 21  1  0  0  0
 22 21  2  0  0  0
 22 23  1  0  0  0
 23 24  1  0  0  0
 24 25  1  0  0  0
 25 26  4  0  0  0
 22 26  1  0  0  0
 25 27  2  0  0  0
  3 28  1  0  0  0
  5 29  1  0  0  0
  7 30  1  0  0  0
  7 31  1  0  0  0
  7 32  1  0  0  0
  9 33  1  0  0  0
 21 34  1  0  0  0
 23 35  1  0  0  0
 23 36  1  0  0  0
 24 37  1  0  0  0
 24 38  1  0  0  0
 26 39  1  0  0  0
M  END
$$$$
00070001.cdx

Structure written by MVD (www.molegro.com)
 36 38  0  0  1  0            999 V2000
    0.0487    1.0813    0.0000 C   0  0  0  0  0  0
    0.0487    0.2563    0.0000 N   0  0  0  0  0  0
    0.7632   -0.1562    0.0000 C   0  0  0  0  0  0
    1.4776    0.2563    0.0000 C   0  0  0  0  0  0
    1.4776    1.0813    0.0000 C   0  0  0  0  0  0
    0.7632    1.4938    0.0000 C   0  0  0  0  0  0
   -0.6658    1.4938    0.0000 C   0  0  0  0  0  0
   -1.3803    1.0813    0.0000 N   0  0  0  0  0  0
   -0.6658    2.3188    0.0000 O   0  0  0  0  0  0
    0.0487   -0.5687    0.0000 C   0  0  0  0  0  0
    0.7632    2.3188    0.0000 C   0  0  0  0  0  0
    1.4776   -0.5687    0.0000 N   0  0  0  0  0  0
    2.0610   -1.1521    0.0000 O   0  0  0  0  0  0
   -0.5347   -1.1521    0.0000 O   0  0  0  0  0  0
    3.4412   -1.5219    0.0000 C   0  0  0  0  0  0
    2.8579   -0.9385    0.0000 C   0  0  0  0  0  0
    3.0714   -0.1417    0.0000 F   0  0  0  0  0  0
    3.2277   -2.3188    0.0000 O   0  0  0  0  0  0
    4.2381   -1.3084    0.0000 O   0  0  0  0  0  0
   -2.0947    1.4938    0.0000 C   0  0  0  0  0  0
   -2.8092    1.0813    0.0000 C   0  0  0  0  0  0
   -3.5237    1.4938    0.0000 N   0  0  0  0  0  0
   -4.2381    1.0813    0.0000 C   0  0  0  0  0  0
   -4.2381    0.2563    0.0000 C   0  0  0  0  0  0
   -3.5237   -0.1562    0.0000 N   0  0  0  0  0  0
   -2.8092    0.2563    0.0000 C   0  0  0  0  0  0
    0.7632   -1.2462    0.0000 H   0  0  0  0  0  0
    2.4216    1.6263    0.0000 H   0  0  0  0  0  0
   -1.3803    0.0513    0.0000 H   0  0  0  0  0  0
   -0.2792    2.6375    0.0000 H   0  0  0  0  0  0
    1.2844    2.6375    0.9027 H   0  0  0  0  0  0
    1.2844    2.6375   -0.9027 H   0  0  0  0  0  0
   -2.0947    2.5838    0.0000 H   0  0  0  0  0  0
   -5.1821    1.6263    0.0000 H   0  0  0  0  0  0
   -5.1821   -0.2887    0.0000 H   0  0  0  0  0  0
   -1.8652   -0.2887    0.0000 H   0  0  0  0  0  0
  1  2  1  0  0  0
  2  3  2  0  0  0
  4  3  1  0  0  0
  4  5  1  0  0  0
  5  6  2  0  0  0
  1  6  1  0  0  0
  1  7  2  0  0  0
  7  8  4  0  0  0
  7  9  2  0  0  0
  2 10  1  0  0  0
  6 11  1  0  0  0
  4 12  1  0  0  0
 12 10  1  0  0  0
 12 13  1  0  0  0
 10 14  2  0  0  0
 13 16  1  0  0  0
 16 15  2  0  0  0
 16 17  1  0  0  0
 15 18  4  0  0  0
 15 19  4  0  0  0
  8 20  2  0  0  0
 20 21  1  0  0  0
 21 22  4  0  0  0
 22 23  4  0  0  0
 23 24  4  0  0  0
 24 25  4  0  0  0
 25 26  4  0  0  0
 26 21  4  0  0  0
  3 27  1  0  0  0
  5 28  1  0  0  0
  8 29  1  0  0  0
 11 30  1  0  0  0
 11 31  1  0  0  0
 11 32  1  0  0  0
 20 33  1  0  0  0
 23 34  1  0  0  0
 24 35  1  0  0  0
 26 36  1  0  0  0
M  END
$$$$
00129001.cdx

Structure written by MVD (www.molegro.com)
 34 35  0  0  1  0            999 V2000
    0.0487    1.0813    0.0000 C   0  0  0  0  0  0
    0.0487    0.2563    0.0000 N   0  0  0  0  0  0
    0.7632   -0.1562    0.0000 C   0  0  0  0  0  0
    1.4776    0.2563    0.0000 C   0  0  0  0  0  0
    1.4776    1.0813    0.0000 C   0  0  0  0  0  0
    0.7632    1.4938    0.0000 C   0  0  0  0  0  0
    0.7632    2.3188    0.0000 C   0  0  0  0  0  0
   -0.6658    1.4938    0.0000 C   0  0  0  0  0  0
   -1.3803    1.0813    0.0000 N   0  0  0  0  0  0
   -0.6658    2.3188    0.0000 O   0  0  0  0  0  0
    0.0487   -0.5687    0.0000 C   0  0  0  0  0  0
    1.4776   -0.5687    0.0000 N   0  0  0  0  0  0
   -0.5347   -1.1521    0.0000 O   0  0  0  0  0  0
    2.0610   -1.1521    0.0000 O   0  0  0  0  0  0
    3.4412   -1.5219    0.0000 C   0  0  0  0  0  0
    2.8579   -0.9385    0.0000 C   0  0  0  0  0  0
    3.0714   -0.1417    0.0000 F   0  0  0  0  0  0
    3.2277   -2.3188    0.0000 O   0  0  0  0  0  0
    4.2381   -1.3084    0.0000 O   0  0  0  0  0  0
   -2.0947    1.4938    0.0000 C   0  0  0  0  0  0
   -2.8092    1.0813    0.0000 N   0  0  0  0  0  0
   -3.5237    1.4938    0.0000 S   0  0  0  0  0  0
   -4.2381    1.0813    0.0000 N   0  0  0  0  0  0
   -3.9362    2.2083    0.0000 O   0  0  0  0  0  0
   -2.9403    2.0772    0.0000 O   0  0  0  0  0  0
    0.7632   -1.2462    0.0000 H   0  0  0  0  0  0
    2.4216    1.6263    0.0000 H   0  0  0  0  0  0
   -0.2792    2.6375    0.0000 H   0  0  0  0  0  0
    1.2844    2.6375    0.9027 H   0  0  0  0  0  0
    1.2844    2.6375   -0.9027 H   0  0  0  0  0  0
   -1.3803    0.0513    0.0000 H   0  0  0  0  0  0
   -2.0947    2.5838    0.0000 H   0  0  0  0  0  0
   -4.9914    1.7837    0.0000 H   0  0  0  0  0  0
   -4.2526    0.5042   -0.8530 H   0  0  0  0  0  0
  1  2  1  0  0  0
  2  3  2  0  0  0
  4  3  1  0  0  0
  4  5  1  0  0  0
  5  6  2  0  0  0
  1  6  1  0  0  0
  6  7  1  0  0  0
  1  8  2  0  0  0
  8  9  4  0  0  0
  8 10  2  0  0  0
  2 11  1  0  0  0
  4 12  1  0  0  0
 11 12  1  0  0  0
 11 13  2  0  0  0
 12 14  1  0  0  0
 16 14  1  0  0  0
 16 15  2  0  0  0
 16 17  1  0  0  0
 15 18  4  0  0  0
 15 19  4  0  0  0
  9 20  2  0  0  0
 20 21  1  0  0  0
 21 22  1  0  0  0
 22 23  1  0  0  0
 22 24  2  0  0  0
 22 25  2  0  0  0
  3 26  1  0  0  0
  5 27  1  0  0  0
  7 28  1  0  0  0
  7 29  1  0  0  0
  7 30  1  0  0  0
  9 31  1  0  0  0
 20 32  1  0  0  0
 23 33  1  0  0  0
 23 34  1  0  0  0
M  END
$$$$
00116001.cdx

Structure written by MVD (www.molegro.com)
 40 41  0  0  1  0            999 V2000
    0.0487    1.0813    0.0000 C   0  0  0  0  0  0
    0.0487    0.2563    0.0000 N   0  0  0  0  0  0
    0.7632   -0.1562    0.0000 C   0  0  0  0  0  0
    1.4776    0.2563    0.0000 C   0  0  0  0  0  0
    1.4776    1.0813    0.0000 C   0  0  0  0  0  0
    0.7632    1.4938    0.0000 C   0  0  0  0  0  0
    0.7632    2.3188    0.0000 C   0  0  0  0  0  0
   -0.6658    1.4938    0.0000 C   0  0  0  0  0  0
   -1.3803    1.0813    0.0000 N   0  0  0  0  0  0
    0.0487   -0.5687    0.0000 C   0  0  0  0  0  0
    1.4776   -0.5687    0.0000 N   0  0  0  0  0  0
   -0.5347   -1.1521    0.0000 O   0  0  0  0  0  0
    2.0610   -1.1521    0.0000 O   0  0  0  0  0  0
    3.4412   -1.5219    0.0000 C   0  0  0  0  0  0
    2.8579   -0.9385    0.0000 C   0  0  0  0  0  0
    3.0714   -0.1417    0.0000 F   0  0  0  0  0  0
    3.2277   -2.3188    0.0000 O   0  0  0  0  0  0
    4.2381   -1.3084    0.0000 O   0  0  0  0  0  0
   -2.0947    1.4938    0.0000 C   0  0  0  0  0  0
   -2.8092    1.0813    0.0000 O   0  0  0  0  0  0
   -2.0947    2.3188    0.0000 O   0  0  0  0  0  0
   -3.5237    1.4938    0.0000 C   0  0  0  0  0  0
   -4.2381    1.0813    0.0000 C   0  0  0  0  0  0
   -3.5237    2.3188    0.0000 C   0  0  0  0  0  0
   -2.8092    1.9063    0.0000 C   0  0  0  0  0  0
    0.7632   -1.2462    0.0000 H   0  0  0  0  0  0
    2.4216    1.6263    0.0000 H   0  0  0  0  0  0
   -0.2792    2.6375    0.0000 H   0  0  0  0  0  0
    1.2844    2.6375    0.9027 H   0  0  0  0  0  0
    1.2844    2.6375   -0.9027 H   0  0  0  0  0  0
   -0.6658    2.5838    0.0000 H   0  0  0  0  0  0
   -5.0353    1.8246    0.0000 H   0  0  0  0  0  0
   -4.2535    0.4706   -0.9027 H   0  0  0  0  0  0
   -4.2535    0.4706    0.9027 H   0  0  0  0  0  0
   -4.5661    2.6375    0.0000 H   0  0  0  0  0  0
   -3.0025    2.6375    0.9027 H   0  0  0  0  0  0
   -3.0025    2.6375   -0.9027 H   0  0  0  0  0  0
   -3.0544    2.9684    0.0000 H   0  0  0  0  0  0
   -2.2726    1.6143    0.9027 H   0  0  0  0  0  0
   -2.2726    1.6143   -0.9027 H   0  0  0  0  0  0
  1  2  1  0  0  0
  2  3  2  0  0  0
  4  3  1  0  0  0
  4  5  1  0  0  0
  5  6  2  0  0  0
  1  6  1  0  0  0
  6  7  1  0  0  0
  1  8  2  0  0  0
  8  9  2  0  0  0
  2 10  1  0  0  0
  4 11  1  0  0  0
 10 11  1  0  0  0
 10 12  2  0  0  0
 11 13  1  0  0  0
 15 13  1  0  0  0
 15 14  2  0  0  0
 15 16  1  0  0  0
 14 17  4  0  0  0
 14 18  4  0  0  0
  9 19  2  0  0  0
 19 20  1  0  0  0
 19 21  2  0  0  0
 20 22  1  0  0  0
 22 23  1  0  0  0
 22 24  1  0  0  0
 22 25  1  0  0  0
  3 26  1  0  0  0
  5 27  1  0  0  0
  7 28  1  0  0  0
  7 29  1  0  0  0
  7 30  1  0  0  0
  8 31  1  0  0  0
 23 32  1  0  0  0
 23 33  1  0  0  0
 23 34  1  0  0  0
 24 35  1  0  0  0
 24 36  1  0  0  0
 24 37  1  0  0  0
 25 38  1  0  0  0
 25 39  1  0  0  0
 25 40  1  0  0  0
M  END
$$$$
00096001.cdx

Structure written by MVD (www.molegro.com)
 36 37  0  0  1  0            999 V2000
    0.4059    1.0813    0.0000 C   0  0  0  0  0  0
    0.4059    0.2563    0.0000 N   0  0  0  0  0  0
    1.1204   -0.1562    0.0000 C   0  0  0  0  0  0
    1.8349    0.2563    0.0000 C   0  0  0  0  0  0
    1.8349    1.0813    0.0000 C   0  0  0  0  0  0
    1.1204    1.4938    0.0000 C   0  0  0  0  0  0
    1.1204    2.3188    0.0000 C   0  0  0  0  0  0
   -0.3085    1.4938    0.0000 C   0  0  0  0  0  0
   -1.0230    1.0813    0.0000 N   0  0  0  0  0  0
   -0.3085    2.3188    0.0000 O   0  0  0  0  0  0
    0.4059   -0.5687    0.0000 C   0  0  0  0  0  0
    1.8349   -0.5687    0.0000 N   0  0  0  0  0  0
   -0.1774   -1.1521    0.0000 O   0  0  0  0  0  0
    2.4182   -1.1521    0.0000 O   0  0  0  0  0  0
    3.7985   -1.5219    0.0000 C   0  0  0  0  0  0
    3.2151   -0.9385    0.0000 C   0  0  0  0  0  0
    3.4286   -0.1417    0.0000 F   0  0  0  0  0  0
    3.5850   -2.3188    0.0000 O   0  0  0  0  0  0
    4.5954   -1.3084    0.0000 O   0  0  0  0  0  0
   -1.7375    1.4938    0.0000 O   0  0  0  0  0  0
   -2.4520    1.0813    0.0000 C   0  0  0  0  0  0
   -3.1664    1.4938    0.0000 C   0  0  0  0  0  0
   -3.8809    1.0813    0.0000 S   0  0  0  0  0  0
   -4.5954    1.4938    0.0000 N   0  0  0  0  0  0
   -3.8809    0.2563    0.0000 O   0  0  0  0  0  0
   -3.8809    1.9063    0.0000 O   0  0  0  0  0  0
    1.1204   -1.2462    0.0000 H   0  0  0  0  0  0
    2.7789    1.6263    0.0000 H   0  0  0  0  0  0
    0.0780    2.6375    0.0000 H   0  0  0  0  0  0
    1.6416    2.6375    0.9027 H   0  0  0  0  0  0
    1.6416    2.6375   -0.9027 H   0  0  0  0  0  0
   -1.0230    0.0513    0.0000 H   0  0  0  0  0  0
   -2.4520   -0.0087    0.0000 H   0  0  0  0  0  0
   -3.1664    2.5838    0.0000 H   0  0  0  0  0  0
   -5.3487    0.7913    0.0000 H   0  0  0  0  0  0
   -4.6100    2.0709    0.8530 H   0  0  0  0  0  0
  1  2  1  0  0  0
  2  3  2  0  0  0
  4  3  1  0  0  0
  4  5  1  0  0  0
  5  6  2  0  0  0
  1  6  1  0  0  0
  6  7  1  0  0  0
  1  8  2  0  0  0
  8  9  4  0  0  0
  8 10  2  0  0  0
  2 11  1  0  0  0
  4 12  1  0  0  0
 11 12  1  0  0  0
 11 13  2  0  0  0
 12 14  1  0  0  0
 16 14  1  0  0  0
 16 15  2  0  0  0
 16 17  1  0  0  0
 15 18  4  0  0  0
 15 19  4  0  0  0
  9 20  1  0  0  0
 20 21  1  0  0  0
 21 22  2  0  0  0
 22 23  1  0  0  0
 23 24  1  0  0  0
 23 25  2  0  0  0
 23 26  2  0  0  0
  3 27  1  0  0  0
  5 28  1  0  0  0
  7 29  1  0  0  0
  7 30  1  0  0  0
  7 31  1  0  0  0
  9 32  1  0  0  0
 21 33  1  0  0  0
 22 34  1  0  0  0
 24 35  1  0  0  0
 24 36  1  0  0  0
M  END
$$$$
00103001.cdx

Structure written by MVD (www.molegro.com)
 40 42  0  0  1  0            999 V2000
   -0.0129   -0.0194    0.0000 C   0  0  0  0  0  0
   -0.0129   -0.8444    0.0000 N   0  0  0  0  0  0
    0.7015   -1.2569    0.0000 C   0  0  0  0  0  0
    1.4160   -0.8444    0.0000 C   0  0  0  0  0  0
    1.4160   -0.0194    0.0000 C   0  0  0  0  0  0
    0.7015    0.3931    0.0000 C   0  0  0  0  0  0
    0.7015    1.2181    0.0000 C   0  0  0  0  0  0
   -0.7274    0.3931    0.0000 C   0  0  0  0  0  0
   -1.4419   -0.0194    0.0000 N   0  0  0  0  0  0
   -0.7274    1.2181    0.0000 O   0  0  0  0  0  0
   -0.0129   -1.6694    0.0000 C   0  0  0  0  0  0
    1.4160   -1.6694    0.0000 N   0  0  0  0  0  0
   -0.5963   -2.2528    0.0000 O   0  0  0  0  0  0
    1.9994   -2.2528    0.0000 O   0  0  0  0  0  0
    3.3796   -2.6226    0.0000 C   0  0  0  0  0  0
    2.7963   -2.0392    0.0000 C   0  0  0  0  0  0
    3.0098   -1.2424    0.0000 F   0  0  0  0  0  0
    3.1661   -3.4195    0.0000 O   0  0  0  0  0  0
    4.1765   -2.4091    0.0000 O   0  0  0  0  0  0
   -2.1563    0.3931    0.0000 O   0  0  0  0  0  0
   -2.1563    1.2181    0.0000 C   0  0  0  0  0  0
   -2.8708    1.6306    0.0000 C   0  0  0  0  0  0
   -2.9570    2.4511    0.0000 C   0  0  0  0  0  0
   -3.7640    2.6226    0.0000 C   0  0  0  0  0  0
   -4.1765    1.9081    0.0000 C   0  0  0  0  0  0
   -3.6245    1.2950    0.0000 N   0  0  0  0  0  0
   -3.9775    3.4195    0.0000 F   0  0  0  0  0  0
   -3.1807    3.2060    0.0000 F   0  0  0  0  0  0
    0.7015   -2.3469    0.0000 H   0  0  0  0  0  0
    2.3600    0.5256    0.0000 H   0  0  0  0  0  0
   -0.3409    1.5368    0.0000 H   0  0  0  0  0  0
    1.2227    1.5368    0.9027 H   0  0  0  0  0  0
    1.2227    1.5368   -0.9027 H   0  0  0  0  0  0
   -1.4419   -1.0494    0.0000 H   0  0  0  0  0  0
   -1.2123    1.7631    0.0000 H   0  0  0  0  0  0
   -2.4808    2.8798   -0.8818 H   0  0  0  0  0  0
   -2.4808    2.8798    0.8818 H   0  0  0  0  0  0
   -4.8137    1.8411   -0.8818 H   0  0  0  0  0  0
   -4.8136    1.8411    0.8819 H   0  0  0  0  0  0
   -3.7504    0.7028   -0.8333 H   0  0  0  0  0  0
  1  2  1  0  0  0
  2  3  2  0  0  0
  4  3  1  0  0  0
  4  5  1  0  0  0
  5  6  1  0  0  0
  1  6  2  0  0  0
  6  7  1  0  0  0
  1  8  1  0  0  0
  8  9  4  0  0  0
  8 10  2  0  0  0
  2 11  1  0  0  0
  4 12  1  0  0  0
 11 12  1  0  0  0
 11 13  2  0  0  0
 12 14  1  0  0  0
 16 14  1  0  0  0
 16 15  2  0  0  0
 16 17  1  0  0  0
 15 18  4  0  0  0
 15 19  4  0  0  0
  9 20  1  0  0  0
 20 21  1  0  0  0
 22 21  2  0  0  0
 22 23  1  0  0  0
 23 24  1  0  0  0
 24 25  1  0  0  0
 25 26  1  0  0  0
 22 26  1  0  0  0
 24 27  1  0  0  0
 24 28  1  0  0  0
  3 29  1  0  0  0
  5 30  1  0  0  0
  7 31  1  0  0  0
  7 32  1  0  0  0
  7 33  1  0  0  0
  9 34  1  0  0  0
 21 35  1  0  0  0
 23 36  1  0  0  0
 23 37  1  0  0  0
 25 38  1  0  0  0
 25 39  1  0  0  0
 26 40  1  0  0  0
M  END
$$$$
00107001.cdx

Structure written by MVD (www.molegro.com)
 37 38  0  0  1  0            999 V2000
    0.4059    1.0813    0.0000 C   0  0  0  0  0  0
    0.4059    0.2563    0.0000 N   0  0  0  0  0  0
    1.1204   -0.1562    0.0000 C   0  0  0  0  0  0
    1.8349    0.2563    0.0000 C   0  0  0  0  0  0
    1.8349    1.0813    0.0000 C   0  0  0  0  0  0
    1.1204    1.4938    0.0000 C   0  0  0  0  0  0
    1.1204    2.3188    0.0000 C   0  0  0  0  0  0
   -0.3085    1.4938    0.0000 C   0  0  0  0  0  0
   -1.0230    1.0813    0.0000 N   0  0  0  0  0  0
   -0.3085    2.3188    0.0000 O   0  0  0  0  0  0
    0.4059   -0.5687    0.0000 C   0  0  0  0  0  0
    1.8349   -0.5687    0.0000 N   0  0  0  0  0  0
   -0.1774   -1.1521    0.0000 O   0  0  0  0  0  0
    2.4182   -1.1521    0.0000 O   0  0  0  0  0  0
    3.7985   -1.5219    0.0000 C   0  0  0  0  0  0
    3.2151   -0.9385    0.0000 C   0  0  0  0  0  0
    3.4286   -0.1417    0.0000 F   0  0  0  0  0  0
    3.5850   -2.3188    0.0000 O   0  0  0  0  0  0
    4.5954   -1.3084    0.0000 O   0  0  0  0  0  0
   -1.7375    1.4938    0.0000 C   0  0  0  0  0  0
   -2.4520    1.0813    0.0000 C   0  0  0  0  0  0
   -3.1664    1.4938    0.0000 N   0  0  0  0  0  0
   -3.8809    1.0813    0.0000 S   0  0  0  0  0  0
   -4.5954    1.4938    0.0000 O   0  0  0  0  0  0
   -3.8809    0.2563    0.0000 O   0  0  0  0  0  0
   -4.5954    0.6688    0.0000 C   0  0  0  0  0  0
    1.1204   -1.2462    0.0000 H   0  0  0  0  0  0
    2.7789    1.6263    0.0000 H   0  0  0  0  0  0
    0.0780    2.6375    0.0000 H   0  0  0  0  0  0
    1.6416    2.6375    0.9027 H   0  0  0  0  0  0
    1.6416    2.6375   -0.9027 H   0  0  0  0  0  0
   -1.0230    0.0513    0.0000 H   0  0  0  0  0  0
   -1.7375    2.5838    0.0000 H   0  0  0  0  0  0
   -2.4520   -0.0087    0.0000 H   0  0  0  0  0  0
   -5.5394    0.1238    0.0000 H   0  0  0  0  0  0
   -5.5394    0.1238   -0.0000 H   0  0  0  0  0  0
   -5.5394    0.1238    0.0000 H   0  0  0  0  0  0
  1  2  1  0  0  0
  2  3  2  0  0  0
  4  3  1  0  0  0
  4  5  1  0  0  0
  5  6  2  0  0  0
  1  6  1  0  0  0
  6  7  1  0  0  0
  1  8  2  0  0  0
  8  9  4  0  0  0
  8 10  2  0  0  0
  2 11  1  0  0  0
  4 12  1  0  0  0
 11 12  1  0  0  0
 11 13  2  0  0  0
 12 14  1  0  0  0
 16 14  1  0  0  0
 16 15  2  0  0  0
 16 17  1  0  0  0
 15 18  4  0  0  0
 15 19  4  0  0  0
  9 20  2  0  0  0
 20 21  1  0  0  0
 21 22  2  0  0  0
 22 23  1  0  0  0
 23 24  2  0  0  0
 23 25  2  0  0  0
 23 26  1  0  0  0
  3 27  1  0  0  0
  5 28  1  0  0  0
  7 29  1  0  0  0
  7 30  1  0  0  0
  7 31  1  0  0  0
  9 32  1  0  0  0
 20 33  1  0  0  0
 21 34  1  0  0  0
 26 35  1  0  0  0
 26 36  1  0  0  0
 26 37  1  0  0  0
M  END
$$$$
00097001.cdx

Structure written by MVD (www.molegro.com)
 35 36  0  0  1  0            999 V2000
    0.0487    1.0813    0.0000 C   0  0  0  0  0  0
    0.0487    0.2563    0.0000 N   0  0  0  0  0  0
    0.7632   -0.1562    0.0000 C   0  0  0  0  0  0
    1.4776    0.2563    0.0000 C   0  0  0  0  0  0
    1.4776    1.0813    0.0000 C   0  0  0  0  0  0
    0.7632    1.4938    0.0000 C   0  0  0  0  0  0
    0.7632    2.3188    0.0000 C   0  0  0  0  0  0
   -0.6658    1.4938    0.0000 C   0  0  0  0  0  0
   -1.3803    1.0813    0.0000 N   0  0  0  0  0  0
   -0.6658    2.3188    0.0000 O   0  0  0  0  0  0
    0.0487   -0.5687    0.0000 C   0  0  0  0  0  0
    1.4776   -0.5687    0.0000 N   0  0  0  0  0  0
   -0.5347   -1.1521    0.0000 O   0  0  0  0  0  0
    2.0610   -1.1521    0.0000 O   0  0  0  0  0  0
    3.4412   -1.5219    0.0000 C   0  0  0  0  0  0
    2.8579   -0.9385    0.0000 C   0  0  0  0  0  0
    3.0714   -0.1417    0.0000 F   0  0  0  0  0  0
    3.2277   -2.3188    0.0000 O   0  0  0  0  0  0
    4.2381   -1.3084    0.0000 O   0  0  0  0  0  0
   -2.0947    1.4938    0.0000 C   0  0  0  0  0  0
   -2.8092    1.0813    0.0000 C   0  0  0  0  0  0
   -3.5237    1.4938    0.0000 S   0  0  0  0  0  0
   -4.2381    1.0813    0.0000 N   0  0  0  0  0  0
   -3.5237    2.3188    0.0000 O   0  0  0  0  0  0
   -2.8092    1.9063    0.0000 O   0  0  0  0  0  0
    0.7632   -1.2462    0.0000 H   0  0  0  0  0  0
    2.4216    1.6263    0.0000 H   0  0  0  0  0  0
   -0.2792    2.6375    0.0000 H   0  0  0  0  0  0
    1.2844    2.6375    0.9027 H   0  0  0  0  0  0
    1.2844    2.6375   -0.9027 H   0  0  0  0  0  0
   -1.3803    0.0513    0.0000 H   0  0  0  0  0  0
   -2.0947    2.5838    0.0000 H   0  0  0  0  0  0
   -2.8092   -0.0087    0.0000 H   0  0  0  0  0  0
   -4.9914    1.7837    0.0000 H   0  0  0  0  0  0
   -4.2526    0.5042   -0.8530 H   0  0  0  0  0  0
  1  2  1  0  0  0
  2  3  2  0  0  0
  4  3  1  0  0  0
  4  5  1  0  0  0
  5  6  2  0  0  0
  1  6  1  0  0  0
  6  7  1  0  0  0
  1  8  2  0  0  0
  8  9  4  0  0  0
  8 10  2  0  0  0
  2 11  1  0  0  0
  4 12  1  0  0  0
 11 12  1  0  0  0
 11 13  2  0  0  0
 12 14  1  0  0  0
 16 14  1  0  0  0
 16 15  2  0  0  0
 16 17  1  0  0  0
 15 18  4  0  0  0
 15 19  4  0  0  0
  9 20  2  0  0  0
 20 21  1  0  0  0
 21 22  1  0  0  0
 22 23  1  0  0  0
 22 24  2  0  0  0
 22 25  2  0  0  0
  3 26  1  0  0  0
  5 27  1  0  0  0
  7 28  1  0  0  0
  7 29  1  0  0  0
  7 30  1  0  0  0
  9 31  1  0  0  0
 20 32  1  0  0  0
 21 33  1  0  0  0
 23 34  1  0  0  0
 23 35  1  0  0  0
M  END
$$$$
00115001.cdx

Structure written by MVD (www.molegro.com)
 36 37  0  0  1  0            999 V2000
    0.4059    1.0813    0.0000 C   0  0  0  0  0  0
    0.4059    0.2563    0.0000 N   0  0  0  0  0  0
    1.1204   -0.1562    0.0000 C   0  0  0  0  0  0
    1.8349    0.2563    0.0000 C   0  0  0  0  0  0
    1.8349    1.0813    0.0000 C   0  0  0  0  0  0
    1.1204    1.4938    0.0000 C   0  0  0  0  0  0
    1.1204    2.3188    0.0000 C   0  0  0  0  0  0
   -0.3085    1.4938    0.0000 C   0  0  0  0  0  0
   -1.0230    1.0813    0.0000 N   0  0  0  0  0  0
   -0.3085    2.3188    0.0000 O   0  0  0  0  0  0
    0.4059   -0.5687    0.0000 C   0  0  0  0  0  0
    1.8349   -0.5687    0.0000 N   0  0  0  0  0  0
   -0.1774   -1.1521    0.0000 O   0  0  0  0  0  0
    2.4182   -1.1521    0.0000 O   0  0  0  0  0  0
    3.7985   -1.5219    0.0000 C   0  0  0  0  0  0
    3.2151   -0.9385    0.0000 C   0  0  0  0  0  0
    3.4286   -0.1417    0.0000 F   0  0  0  0  0  0
    3.5850   -2.3188    0.0000 O   0  0  0  0  0  0
    4.5954   -1.3084    0.0000 O   0  0  0  0  0  0
   -1.7375    1.4938    0.0000 C   0  0  0  0  0  0
   -2.4520    1.0813    0.0000 C   0  0  0  0  0  0
   -3.1664    1.4938    0.0000 N   0  0  0  0  0  0
   -3.8809    1.0813    0.0000 S   0  0  0  0  0  0
   -4.5954    1.4938    0.0000 O   0  0  0  0  0  0
   -3.8809    0.2563    0.0000 O   0  0  0  0  0  0
   -4.5954    0.6688    0.0000 N   0  0  0  0  0  0
    1.1204   -1.2462    0.0000 H   0  0  0  0  0  0
    2.7789    1.6263    0.0000 H   0  0  0  0  0  0
    0.0780    2.6375    0.0000 H   0  0  0  0  0  0
    1.6416    2.6375    0.9027 H   0  0  0  0  0  0
    1.6416    2.6375   -0.9027 H   0  0  0  0  0  0
   -1.0230    0.0513    0.0000 H   0  0  0  0  0  0
   -1.7375    2.5838    0.0000 H   0  0  0  0  0  0
   -2.4520   -0.0087    0.0000 H   0  0  0  0  0  0
   -5.4874    0.1538    0.0000 H   0  0  0  0  0  0
   -5.4874    0.1538   -0.0000 H   0  0  0  0  0  0
  1  2  1  0  0  0
  2  3  2  0  0  0
  4  3  1  0  0  0
  4  5  1  0  0  0
  5  6  2  0  0  0
  1  6  1  0  0  0
  6  7  1  0  0  0
  1  8  2  0  0  0
  8  9  4  0  0  0
  8 10  2  0  0  0
  2 11  1  0  0  0
  4 12  1  0  0  0
 11 12  1  0  0  0
 11 13  2  0  0  0
 12 14  1  0  0  0
 16 14  1  0  0  0
 16 15  2  0  0  0
 16 17  1  0  0  0
 15 18  4  0  0  0
 15 19  4  0  0  0
  9 20  2  0  0  0
 20 21  1  0  0  0
 21 22  2  0  0  0
 22 23  1  0  0  0
 23 24  2  0  0  0
 23 25  2  0  0  0
 23 26  1  0  0  0
  3 27  1  0  0  0
  5 28  1  0  0  0
  7 29  1  0  0  0
  7 30  1  0  0  0
  7 31  1  0  0  0
  9 32  1  0  0  0
 20 33  1  0  0  0
 21 34  1  0  0  0
 26 35  1  0  0  0
 26 36  1  0  0  0
M  END
$$$$
00113001.cdx

Structure written by MVD (www.molegro.com)
 40 42  0  0  1  0            999 V2000
    0.3973    0.3790    0.0000 C   0  0  0  0  0  0
    0.3973   -0.4460    0.0000 N   0  0  0  0  0  0
    1.1118   -0.8585    0.0000 C   0  0  0  0  0  0
    1.8263   -0.4460    0.0000 C   0  0  0  0  0  0
    1.8263    0.3790    0.0000 C   0  0  0  0  0  0
    1.1118    0.7915    0.0000 C   0  0  0  0  0  0
    1.1118    1.6165    0.0000 C   0  0  0  0  0  0
   -0.3172    0.7915    0.0000 C   0  0  0  0  0  0
   -1.0316    0.3790    0.0000 N   0  0  0  0  0  0
   -0.3172    1.6165    0.0000 O   0  0  0  0  0  0
    0.3973   -1.2710    0.0000 C   0  0  0  0  0  0
    1.8263   -1.2710    0.0000 N   0  0  0  0  0  0
   -0.1860   -1.8543    0.0000 O   0  0  0  0  0  0
    2.4096   -1.8543    0.0000 O   0  0  0  0  0  0
    3.7899   -2.2242    0.0000 C   0  0  0  0  0  0
    3.2065   -1.6408    0.0000 C   0  0  0  0  0  0
    3.4200   -0.8439    0.0000 F   0  0  0  0  0  0
    3.5763   -3.0210    0.0000 O   0  0  0  0  0  0
    4.5868   -2.0106    0.0000 O   0  0  0  0  0  0
   -1.7461    0.7915    0.0000 C   0  0  0  0  0  0
   -1.7461    1.6165    0.0000 C   0  0  0  0  0  0
   -2.4606    2.0290    0.0000 C   0  0  0  0  0  0
   -2.5468    2.8495    0.0000 C   0  0  0  0  0  0
   -3.3538    3.0210    0.0000 C   0  0  0  0  0  0
   -3.7663    2.3066    0.0000 C   0  0  0  0  0  0
   -3.2142    1.6935    0.0000 N   0  0  0  0  0  0
   -4.5868    2.2203    0.0000 O   0  0  0  0  0  0
    1.1118   -1.9485    0.0000 H   0  0  0  0  0  0
    2.7703    0.9240    0.0000 H   0  0  0  0  0  0
    0.0694    1.9352    0.0000 H   0  0  0  0  0  0
    1.6330    1.9352    0.9027 H   0  0  0  0  0  0
    1.6330    1.9352   -0.9027 H   0  0  0  0  0  0
   -1.0316   -0.6510    0.0000 H   0  0  0  0  0  0
   -2.6901    0.2465    0.0000 H   0  0  0  0  0  0
   -0.8021    2.1615    0.0000 H   0  0  0  0  0  0
   -2.0706    3.2782   -0.8818 H   0  0  0  0  0  0
   -2.0706    3.2782    0.8818 H   0  0  0  0  0  0
   -3.6144    3.6063   -0.8818 H   0  0  0  0  0  0
   -3.6144    3.6062    0.8819 H   0  0  0  0  0  0
   -3.4283    0.6860    0.0000 H   0  0  0  0  0  0
  1  2  1  0  0  0
  2  3  2  0  0  0
  4  3  1  0  0  0
  4  5  1  0  0  0
  5  6  1  0  0  0
  1  6  2  0  0  0
  6  7  1  0  0  0
  1  8  1  0  0  0
  8  9  4  0  0  0
  8 10  2  0  0  0
  2 11  1  0  0  0
  4 12  1  0  0  0
 11 12  1  0  0  0
 11 13  2  0  0  0
 12 14  1  0  0  0
 16 14  1  0  0  0
 16 15  2  0  0  0
 16 17  1  0  0  0
 15 18  4  0  0  0
 15 19  4  0  0  0
  9 20  2  0  0  0
 20 21  1  0  0  0
 22 21  2  0  0  0
 22 23  1  0  0  0
 23 24  1  0  0  0
 24 25  1  0  0  0
 25 26  4  0  0  0
 22 26  1  0  0  0
 25 27  2  0  0  0
  3 28  1  0  0  0
  5 29  1  0  0  0
  7 30  1  0  0  0
  7 31  1  0  0  0
  7 32  1  0  0  0
  9 33  1  0  0  0
 20 34  1  0  0  0
 21 35  1  0  0  0
 23 36  1  0  0  0
 23 37  1  0  0  0
 24 38  1  0  0  0
 24 39  1  0  0  0
 26 40  1  0  0  0
M  END
$$$$
00114001.cdx

Structure written by MVD (www.molegro.com)
 37 38  0  0  1  0            999 V2000
    0.4059    1.0813    0.0000 C   0  0  0  0  0  0
    0.4059    0.2563    0.0000 N   0  0  0  0  0  0
    1.1204   -0.1562    0.0000 C   0  0  0  0  0  0
    1.8349    0.2563    0.0000 C   0  0  0  0  0  0
    1.8349    1.0813    0.0000 C   0  0  0  0  0  0
    1.1204    1.4938    0.0000 C   0  0  0  0  0  0
    1.1204    2.3188    0.0000 C   0  0  0  0  0  0
   -0.3085    1.4938    0.0000 C   0  0  0  0  0  0
   -1.0230    1.0813    0.0000 N   0  0  0  0  0  0
   -0.3085    2.3188    0.0000 O   0  0  0  0  0  0
    0.4059   -0.5687    0.0000 C   0  0  0  0  0  0
    1.8349   -0.5687    0.0000 N   0  0  0  0  0  0
   -0.1774   -1.1521    0.0000 O   0  0  0  0  0  0
    2.4182   -1.1521    0.0000 O   0  0  0  0  0  0
    3.7985   -1.5219    0.0000 C   0  0  0  0  0  0
    3.2151   -0.9385    0.0000 C   0  0  0  0  0  0
    3.4286   -0.1417    0.0000 F   0  0  0  0  0  0
    3.5850   -2.3188    0.0000 O   0  0  0  0  0  0
    4.5954   -1.3084    0.0000 O   0  0  0  0  0  0
   -1.7375    1.4938    0.0000 C   0  0  0  0  0  0
   -2.4520    1.0813    0.0000 C   0  0  0  0  0  0
   -3.1664    1.4938    0.0000 C   0  0  0  0  0  0
   -3.8809    1.0813    0.0000 S   0  0  0  0  0  0
   -4.5954    1.4938    0.0000 O   0  0  0  0  0  0
   -3.8809    0.2563    0.0000 O   0  0  0  0  0  0
   -4.5954    0.6688    0.0000 N   0  0  0  0  0  0
    1.1204   -1.2462    0.0000 H   0  0  0  0  0  0
    2.7789    1.6263    0.0000 H   0  0  0  0  0  0
    0.0780    2.6375    0.0000 H   0  0  0  0  0  0
    1.6416    2.6375    0.9027 H   0  0  0  0  0  0
    1.6416    2.6375   -0.9027 H   0  0  0  0  0  0
   -1.0230    0.0513    0.0000 H   0  0  0  0  0  0
   -1.7375    2.5838    0.0000 H   0  0  0  0  0  0
   -2.4520   -0.0087    0.0000 H   0  0  0  0  0  0
   -3.1664    2.5838    0.0000 H   0  0  0  0  0  0
   -5.4874    0.1538    0.0000 H   0  0  0  0  0  0
   -5.4874    0.1538   -0.0000 H   0  0  0  0  0  0
  1  2  1  0  0  0
  2  3  2  0  0  0
  4  3  1  0  0  0
  4  5  1  0  0  0
  5  6  2  0  0  0
  1  6  1  0  0  0
  6  7  1  0  0  0
  1  8  2  0  0  0
  8  9  4  0  0  0
  8 10  2  0  0  0
  2 11  1  0  0  0
  4 12  1  0  0  0
 11 12  1  0  0  0
 11 13  2  0  0  0
 12 14  1  0  0  0
 16 14  1  0  0  0
 16 15  2  0  0  0
 16 17  1  0  0  0
 15 18  4  0  0  0
 15 19  4  0  0  0
  9 20  2  0  0  0
 20 21  1  0  0  0
 21 22  2  0  0  0
 22 23  1  0  0  0
 23 24  2  0  0  0
 23 25  2  0  0  0
 23 26  1  0  0  0
  3 27  1  0  0  0
  5 28  1  0  0  0
  7 29  1  0  0  0
  7 30  1  0  0  0
  7 31  1  0  0  0
  9 32  1  0  0  0
 20 33  1  0  0  0
 21 34  1  0  0  0
 22 35  1  0  0  0
 26 36  1  0  0  0
 26 37  1  0  0  0
M  END
$$$$
00118001.cdx

Structure written by MVD (www.molegro.com)
 31 32  0  0  1  0            999 V2000
   -0.6658    1.0813    0.0000 C   0  0  0  0  0  0
   -0.6658    0.2563    0.0000 N   0  0  0  0  0  0
    0.0487   -0.1562    0.0000 C   0  0  0  0  0  0
    0.7632    0.2563    0.0000 C   0  0  0  0  0  0
    0.7632    1.0813    0.0000 C   0  0  0  0  0  0
    0.0487    1.4938    0.0000 C   0  0  0  0  0  0
    0.0487    2.3188    0.0000 C   0  0  0  0  0  0
   -1.3803    1.4938    0.0000 C   0  0  0  0  0  0
   -2.0947    1.0813    0.0000 N   0  0  0  0  0  0
   -0.6658   -0.5687    0.0000 C   0  0  0  0  0  0
    0.7632   -0.5687    0.0000 N   0  0  0  0  0  0
   -1.2491   -1.1521    0.0000 O   0  0  0  0  0  0
    1.3465   -1.1521    0.0000 O   0  0  0  0  0  0
    2.7268   -1.5219    0.0000 C   0  0  0  0  0  0
    2.1434   -0.9385    0.0000 C   0  0  0  0  0  0
    2.3569   -0.1417    0.0000 F   0  0  0  0  0  0
    2.5133   -2.3188    0.0000 O   0  0  0  0  0  0
    3.5237   -1.3084    0.0000 O   0  0  0  0  0  0
   -2.8092    1.4938    0.0000 C   0  0  0  0  0  0
   -3.5237    1.0813    0.0000 C   0  0  0  0  0  0
   -2.8092    2.3188    0.0000 O   0  0  0  0  0  0
    0.0487   -1.2462    0.0000 H   0  0  0  0  0  0
    1.7072    1.6263    0.0000 H   0  0  0  0  0  0
   -0.9937    2.6375    0.0000 H   0  0  0  0  0  0
    0.5699    2.6375    0.9027 H   0  0  0  0  0  0
    0.5699    2.6375   -0.9027 H   0  0  0  0  0  0
   -1.3803    2.5838    0.0000 H   0  0  0  0  0  0
   -2.0947    0.0513    0.0000 H   0  0  0  0  0  0
   -4.3209    1.8247    0.0000 H   0  0  0  0  0  0
   -3.5391    0.4706   -0.9027 H   0  0  0  0  0  0
   -3.5391    0.4706    0.9027 H   0  0  0  0  0  0
  1  2  1  0  0  0
  2  3  2  0  0  0
  4  3  1  0  0  0
  4  5  1  0  0  0
  5  6  1  0  0  0
  1  6  2  0  0  0
  6  7  1  0  0  0
  1  8  1  0  0  0
  8  9  2  0  0  0
  2 10  1  0  0  0
  4 11  1  0  0  0
 10 11  1  0  0  0
 10 12  2  0  0  0
 11 13  1  0  0  0
 15 13  1  0  0  0
 15 14  2  0  0  0
 15 16  1  0  0  0
 14 17  4  0  0  0
 14 18  4  0  0  0
  9 19  4  0  0  0
 19 20  1  0  0  0
 19 21  2  0  0  0
  3 22  1  0  0  0
  5 23  1  0  0  0
  7 24  1  0  0  0
  7 25  1  0  0  0
  7 26  1  0  0  0
  8 27  1  0  0  0
  9 28  1  0  0  0
 20 29  1  0  0  0
 20 30  1  0  0  0
 20 31  1  0  0  0
M  END
$$$$
00102001.cdx

Structure written by MVD (www.molegro.com)
 36 38  0  0  1  0            999 V2000
   -0.0129    0.3790    0.0000 C   0  0  0  0  0  0
   -0.0129   -0.4460    0.0000 N   0  0  0  0  0  0
    0.7015   -0.8585    0.0000 C   0  0  0  0  0  0
    1.4160   -0.4460    0.0000 C   0  0  0  0  0  0
    1.4160    0.3790    0.0000 C   0  0  0  0  0  0
    0.7015    0.7915    0.0000 C   0  0  0  0  0  0
    0.7015    1.6165    0.0000 C   0  0  0  0  0  0
   -0.7274    0.7915    0.0000 C   0  0  0  0  0  0
   -1.4419    0.3790    0.0000 N   0  0  0  0  0  0
   -0.7274    1.6165    0.0000 O   0  0  0  0  0  0
   -0.0129   -1.2710    0.0000 C   0  0  0  0  0  0
    1.4160   -1.2710    0.0000 N   0  0  0  0  0  0
   -0.5963   -1.8543    0.0000 O   0  0  0  0  0  0
    1.9994   -1.8543    0.0000 O   0  0  0  0  0  0
    3.3796   -2.2242    0.0000 C   0  0  0  0  0  0
    2.7963   -1.6408    0.0000 C   0  0  0  0  0  0
    3.0098   -0.8439    0.0000 F   0  0  0  0  0  0
    3.1661   -3.0210    0.0000 O   0  0  0  0  0  0
    4.1765   -2.0106    0.0000 O   0  0  0  0  0  0
   -2.1563    0.7915    0.0000 O   0  0  0  0  0  0
   -2.1563    1.6165    0.0000 C   0  0  0  0  0  0
   -2.8708    2.0290    0.0000 C   0  0  0  0  0  0
   -2.9570    2.8495    0.0000 C   0  0  0  0  0  0
   -3.7640    3.0210    0.0000 C   0  0  0  0  0  0
   -4.1765    2.3066    0.0000 C   0  0  0  0  0  0
   -3.6245    1.6935    0.0000 N   0  0  0  0  0  0
    0.7015   -1.9485    0.0000 H   0  0  0  0  0  0
    2.3600    0.9240    0.0000 H   0  0  0  0  0  0
   -0.3409    1.9352    0.0000 H   0  0  0  0  0  0
    1.2227    1.9352    0.9027 H   0  0  0  0  0  0
    1.2227    1.9352   -0.9027 H   0  0  0  0  0  0
   -1.4419   -0.6510    0.0000 H   0  0  0  0  0  0
   -1.2123    2.1615    0.0000 H   0  0  0  0  0  0
   -2.1470    3.5788    0.0000 H   0  0  0  0  0  0
   -4.2073    4.0168    0.0000 H   0  0  0  0  0  0
   -5.2605    2.1927    0.0000 H   0  0  0  0  0  0
  1  2  1  0  0  0
  2  3  2  0  0  0
  4  3  1  0  0  0
  4  5  1  0  0  0
  5  6  1  0  0  0
  1  6  2  0  0  0
  6  7  1  0  0  0
  1  8  1  0  0  0
  8  9  4  0  0  0
  8 10  2  0  0  0
  2 11  1  0  0  0
  4 12  1  0  0  0
 11 12  1  0  0  0
 11 13  2  0  0  0
 12 14  1  0  0  0
 16 14  1  0  0  0
 16 15  2  0  0  0
 16 17  1  0  0  0
 15 18  4  0  0  0
 15 19  4  0  0  0
  9 20  1  0  0  0
 20 21  1  0  0  0
 22 21  1  0  0  0
 22 23  4  0  0  0
 23 24  4  0  0  0
 24 25  4  0  0  0
 25 26  4  0  0  0
 22 26  4  0  0  0
  3 27  1  0  0  0
  5 28  1  0  0  0
  7 29  1  0  0  0
  7 30  1  0  0  0
  7 31  1  0  0  0
  9 32  1  0  0  0
 21 33  1  0  0  0
 23 34  1  0  0  0
 24 35  1  0  0  0
 25 36  1  0  0  0
M  END
$$$$
00489001.cdx

Structure written by MVD (www.molegro.com)
 23 24  0  0  1  0            999 V2000
   -1.3803    1.0813    0.0000 C   0  0  0  0  0  0
   -1.3803    0.2563    0.0000 N   0  0  0  0  0  0
   -0.6658   -0.1562    0.0000 C   0  0  0  0  0  0
    0.0487    0.2563    0.0000 C   0  0  0  0  0  0
    0.0487    1.0813    0.0000 C   0  0  0  0  0  0
   -0.6658    1.4938    0.0000 C   0  0  0  0  0  0
   -1.3803   -0.5687    0.0000 C   0  0  0  0  0  0
    0.0487   -0.5687    0.0000 N   0  0  0  0  0  0
   -2.0947    1.4938    0.0000 C   0  0  0  0  0  0
   -2.8092    1.0813    0.0000 N   0  0  0  0  0  0
   -2.0947    2.3188    0.0000 O   0  0  0  0  0  0
   -1.9636   -1.1521    0.0000 O   0  0  0  0  0  0
    0.6321   -1.1521    0.0000 O   0  0  0  0  0  0
    1.4289   -0.9385    0.0000 C   0  0  0  0  0  0
    2.0123   -1.5219    0.0000 C   0  0  0  0  0  0
    2.8092   -1.3084    0.0000 O   0  0  0  0  0  0
    1.6425   -0.1417    0.0000 F   0  0  0  0  0  0
    1.7988   -2.3188    0.0000 O   0  0  0  0  0  0
   -0.6658   -1.2462    0.0000 H   0  0  0  0  0  0
    0.9927    1.6263    0.0000 H   0  0  0  0  0  0
   -0.6658    2.5838    0.0000 H   0  0  0  0  0  0
   -3.7012    1.5963    0.0000 H   0  0  0  0  0  0
   -2.8092    0.0513    0.0000 H   0  0  0  0  0  0
  1  2  4  0  0  0
  2  3  4  0  0  0
  4  3  4  0  0  0
  4  5  4  0  0  0
  5  6  4  0  0  0
  1  6  4  0  0  0
  2  7  1  0  0  0
  4  8  1  0  0  0
  8  7  1  0  0  0
  1  9  1  0  0  0
  9 10  1  0  0  0
  9 11  2  0  0  0
  7 12  2  0  0  0
  8 13  1  0  0  0
 14 13  1  0  0  0
 14 15  2  0  0  0
 15 16  4  0  0  0
 14 17  1  0  0  0
 15 18  4  0  0  0
  3 19  1  0  0  0
  5 20  1  0  0  0
  6 21  1  0  0  0
 10 22  1  0  0  0
 10 23  1  0  0  0
M  END
$$$$
00119001.cdx

Structure written by MVD (www.molegro.com)
 31 32  0  0  1  0            999 V2000
   -0.3085    1.0813    0.0000 C   0  0  0  0  0  0
   -0.3085    0.2563    0.0000 N   0  0  0  0  0  0
    0.4059   -0.1562    0.0000 C   0  0  0  0  0  0
    1.1204    0.2563    0.0000 C   0  0  0  0  0  0
    1.1204    1.0813    0.0000 C   0  0  0  0  0  0
    0.4059    1.4938    0.0000 C   0  0  0  0  0  0
    0.4059    2.3188    0.0000 C   0  0  0  0  0  0
   -1.0230    1.4938    0.0000 C   0  0  0  0  0  0
   -1.7375    1.0813    0.0000 N   0  0  0  0  0  0
   -0.3085   -0.5687    0.0000 C   0  0  0  0  0  0
    1.1204   -0.5687    0.0000 N   0  0  0  0  0  0
   -0.8919   -1.1521    0.0000 O   0  0  0  0  0  0
    1.7038   -1.1521    0.0000 O   0  0  0  0  0  0
    3.0840   -1.5219    0.0000 C   0  0  0  0  0  0
    2.5006   -0.9385    0.0000 C   0  0  0  0  0  0
    2.7142   -0.1417    0.0000 F   0  0  0  0  0  0
    2.8705   -2.3188    0.0000 O   0  0  0  0  0  0
    3.8809   -1.3084    0.0000 O   0  0  0  0  0  0
   -2.4520    1.4938    0.0000 C   0  0  0  0  0  0
   -3.1664    1.0813    0.0000 C   0  0  0  0  0  0
   -2.4520    2.3188    0.0000 O   0  0  0  0  0  0
   -3.8809    1.4938    0.0000 F   0  0  0  0  0  0
   -3.1664    0.2563    0.0000 F   0  0  0  0  0  0
   -3.1664    1.9063    0.0000 F   0  0  0  0  0  0
    0.4059   -1.2462    0.0000 H   0  0  0  0  0  0
    2.0644    1.6263    0.0000 H   0  0  0  0  0  0
   -0.6365    2.6375    0.0000 H   0  0  0  0  0  0
    0.9271    2.6375    0.9027 H   0  0  0  0  0  0
    0.9271    2.6375   -0.9027 H   0  0  0  0  0  0
   -1.0230    2.5838    0.0000 H   0  0  0  0  0  0
   -1.7375    0.0513    0.0000 H   0  0  0  0  0  0
  1  2  1  0  0  0
  2  3  2  0  0  0
  4  3  1  0  0  0
  4  5  1  0  0  0
  5  6  1  0  0  0
  1  6  2  0  0  0
  6  7  1  0  0  0
  1  8  1  0  0  0
  8  9  2  0  0  0
  2 10  1  0  0  0
  4 11  1  0  0  0
 10 11  1  0  0  0
 10 12  2  0  0  0
 11 13  1  0  0  0
 15 13  1  0  0  0
 15 14  2  0  0  0
 15 16  1  0  0  0
 14 17  4  0  0  0
 14 18  4  0  0  0
  9 19  4  0  0  0
 19 20  1  0  0  0
 19 21  2  0  0  0
 20 22  1  0  0  0
 20 23  1  0  0  0
 20 24  1  0  0  0
  3 25  1  0  0  0
  5 26  1  0  0  0
  7 27  1  0  0  0
  7 28  1  0  0  0
  7 29  1  0  0  0
  8 30  1  0  0  0
  9 31  1  0  0  0
M  END
$$$$
Unknown 1

Structure written by MVD (www.molegro.com)
 32 34  0  0  1  0            999 V2000
   25.2422  -24.4396    0.0000 C   0  0  0  0  0  0
   25.9599  -24.8524    0.0000 C   0  0  0  0  0  0
   26.6734  -24.4396    0.0000 C   0  0  0  0  0  0
   26.6734  -23.6146    0.0000 C   0  0  0  0  0  0
   25.9599  -23.1941    0.0000 N   0  0  0  0  0  0
   25.2422  -23.6146    0.0000 C   0  0  0  0  0  0
   25.9599  -25.6754    0.0000 C   0  0  0  0  0  0
   26.6734  -26.0840    0.0000 C   0  0  0  0  0  0
   26.6734  -26.9090    0.0000 C   0  0  0  0  0  0
   25.9599  -27.3296    0.0000 C   0  0  0  0  0  0
   25.2422  -26.9090    0.0000 C   0  0  0  0  0  0
   25.2422  -26.0840    0.0000 C   0  0  0  0  0  0
   24.5287  -27.3219    0.0000 C   0  0  0  0  0  0
   23.8205  -26.9043    0.0000 C   0  0  0  0  0  0
   23.0955  -27.3158    0.0000 C   0  0  0  0  0  0
   23.0955  -28.1450    0.0000 N   0  0  0  0  0  0
   23.8142  -28.5564    0.0000 C   0  0  0  0  0  0
   24.5287  -28.1450    0.0000 C   0  0  0  0  0  0
   27.3869  -27.3219    0.0000 C   0  0  0  0  0  0
   27.3869  -28.1450    0.0000 O   0  0  0  0  0  0
   28.0969  -26.9072    0.0000 O   0  0  0  0  0  0
   24.2987  -24.9854    0.0000 H   0  0  0  0  0  0
   27.6176  -24.9842    0.0000 H   0  0  0  0  0  0
   27.6198  -23.0738    0.0000 H   0  0  0  0  0  0
   24.2965  -23.0726    0.0000 H   0  0  0  0  0  0
   27.6164  -25.5373    0.0000 H   0  0  0  0  0  0
   25.9613  -28.4196    0.0000 H   0  0  0  0  0  0
   24.2999  -25.5361    0.0000 H   0  0  0  0  0  0
   23.8295  -25.8143    0.0000 H   0  0  0  0  0  0
   22.1535  -26.7673    0.0000 H   0  0  0  0  0  0
   23.8156  -29.6464    0.0000 H   0  0  0  0  0  0
   25.4723  -28.6906    0.0000 H   0  0  0  0  0  0
  1  2  1  0  0  0
  3  2  1  0  0  0
  4  3  1  0  0  0
  5  4  2  0  0  0
  6  5  1  0  0  0
  1  6  2  0  0  0
  2  7  2  0  0  0
  7  8  2  0  0  0
  8  9  1  0  0  0
  9 10  1  0  0  0
 10 11  1  0  0  0
 12 11  1  0  0  0
  7 12  1  0  0  0
 11 13  2  0  0  0
 13 14  2  0  0  0
 15 14  1  0  0  0
 16 15  1  0  0  0
 17 16  2  0  0  0
 18 17  1  0  0  0
 13 18  1  0  0  0
  9 19  2  0  0  0
 19 20  4  0  0  0
 19 21  4  0  0  0
  1 22  1  0  0  0
  3 23  1  0  0  0
  4 24  1  0  0  0
  6 25  1  0  0  0
  8 26  1  0  0  0
 10 27  1  0  0  0
 12 28  1  0  0  0
 14 29  1  0  0  0
 15 30  1  0  0  0
 17 31  1  0  0  0
 18 32  1  0  0  0
M  END
$$$$
00051001.cdx

Structure written by MVD (www.molegro.com)
 30 31  0  0  1  0            999 V2000
   -1.3803    1.0813    0.0000 C   0  0  0  0  0  0
   -1.3803    0.2563    0.0000 N   0  0  0  0  0  0
   -0.6658   -0.1562    0.0000 C   0  0  0  0  0  0
    0.0487    0.2563    0.0000 C   0  0  0  0  0  0
    0.0487    1.0813    0.0000 C   0  0  0  0  0  0
   -0.6658    1.4938    0.0000 C   0  0  0  0  0  0
   -2.0947    1.4938    0.0000 C   0  0  0  0  0  0
   -2.8092    1.0813    0.0000 N   0  0  0  0  0  0
   -2.0947    2.3188    0.0000 O   0  0  0  0  0  0
   -1.3803   -0.5687    0.0000 C   0  0  0  0  0  0
   -0.6658    2.3188    0.0000 C   0  0  0  0  0  0
    0.0487   -0.5687    0.0000 N   0  0  0  0  0  0
    0.6321   -1.1521    0.0000 O   0  0  0  0  0  0
   -1.9636   -1.1521    0.0000 O   0  0  0  0  0  0
    2.0123   -1.5219    0.0000 C   0  0  0  0  0  0
    1.4289   -0.9385    0.0000 C   0  0  0  0  0  0
    1.6425   -0.1417    0.0000 F   0  0  0  0  0  0
    1.7988   -2.3188    0.0000 O   0  0  0  0  0  0
    2.8092   -1.3084    0.0000 O   0  0  0  0  0  0
    2.2258   -0.7250    0.0000 C   0  0  0  0  0  0
   -0.6658   -1.2462    0.0000 H   0  0  0  0  0  0
    0.9927    1.6263    0.0000 H   0  0  0  0  0  0
   -3.7012    1.5963    0.0000 H   0  0  0  0  0  0
   -2.8092    0.0513    0.0000 H   0  0  0  0  0  0
   -1.7082    2.6375    0.0000 H   0  0  0  0  0  0
   -0.1446    2.6375    0.9027 H   0  0  0  0  0  0
   -0.1446    2.6375   -0.9027 H   0  0  0  0  0  0
    2.2639    0.3643    0.0000 H   0  0  0  0  0  0
    2.6685   -1.1460    0.9027 H   0  0  0  0  0  0
    2.6685   -1.1460   -0.9027 H   0  0  0  0  0  0
  1  2  1  0  0  0
  2  3  2  0  0  0
  4  3  1  0  0  0
  4  5  1  0  0  0
  5  6  2  0  0  0
  1  6  1  0  0  0
  1  7  2  0  0  0
  7  8  1  0  0  0
  7  9  2  0  0  0
  2 10  1  0  0  0
  6 11  1  0  0  0
  4 12  1  0  0  0
 12 10  1  0  0  0
 12 13  1  0  0  0
 10 14  2  0  0  0
 13 16  1  0  0  0
 16 15  1  0  0  0
 16 17  1  0  0  0
 15 18  4  0  0  0
 15 19  4  0  0  0
 16 20  1  0  0  0
  3 21  1  0  0  0
  5 22  1  0  0  0
  8 23  1  0  0  0
  8 24  1  0  0  0
 11 25  1  0  0  0
 11 26  1  0  0  0
 11 27  1  0  0  0
 20 28  1  0  0  0
 20 29  1  0  0  0
 20 30  1  0  0  0
M  END
$$$$
00490001.cdx

Structure written by MVD (www.molegro.com)
 32 34  0  0  1  0            999 V2000
   -0.3085    0.8750    0.0000 C   0  0  0  0  0  0
   -0.3085    0.0500    0.0000 N   0  0  0  0  0  0
    0.4059   -0.3625    0.0000 C   0  0  0  0  0  0
    1.1204    0.0500    0.0000 C   0  0  0  0  0  0
    1.1204    0.8750    0.0000 C   0  0  0  0  0  0
    0.4059    1.2875    0.0000 C   0  0  0  0  0  0
   -0.3085   -0.7750    0.0000 C   0  0  0  0  0  0
    1.1204   -0.7750    0.0000 N   0  0  0  0  0  0
   -1.0230    1.2875    0.0000 C   0  0  0  0  0  0
   -1.7375    0.8750    0.0000 N   0  0  0  0  0  0
   -1.0230    2.1125    0.0000 O   0  0  0  0  0  0
   -0.8919   -1.3583    0.0000 O   0  0  0  0  0  0
    1.7038   -1.3583    0.0000 O   0  0  0  0  0  0
    2.5006   -1.1448    0.0000 C   0  0  0  0  0  0
    3.0840   -1.7282    0.0000 C   0  0  0  0  0  0
    3.8809   -1.5146    0.0000 O   0  0  0  0  0  0
    2.7142   -0.3479    0.0000 F   0  0  0  0  0  0
    2.8705   -2.5250    0.0000 O   0  0  0  0  0  0
   -2.4520    1.2875    0.0000 C   0  0  0  0  0  0
   -2.4520    2.1125    0.0000 C   0  0  0  0  0  0
   -3.1664    2.5250    0.0000 C   0  0  0  0  0  0
   -3.8809    2.1125    0.0000 N   0  0  0  0  0  0
   -3.8809    1.2875    0.0000 C   0  0  0  0  0  0
   -3.1664    0.8750    0.0000 C   0  0  0  0  0  0
    0.4059   -1.4525    0.0000 H   0  0  0  0  0  0
    2.0644    1.4200    0.0000 H   0  0  0  0  0  0
    0.4059    2.3775    0.0000 H   0  0  0  0  0  0
   -1.7375   -0.1550    0.0000 H   0  0  0  0  0  0
   -1.5080    2.6575    0.0000 H   0  0  0  0  0  0
   -3.1664    3.6150    0.0000 H   0  0  0  0  0  0
   -4.8249    0.7425    0.0000 H   0  0  0  0  0  0
   -3.1664   -0.2150    0.0000 H   0  0  0  0  0  0
  1  2  4  0  0  0
  2  3  4  0  0  0
  4  3  4  0  0  0
  4  5  4  0  0  0
  5  6  4  0  0  0
  1  6  4  0  0  0
  2  7  1  0  0  0
  4  8  1  0  0  0
  8  7  1  0  0  0
  1  9  1  0  0  0
  9 10  4  0  0  0
  9 11  2  0  0  0
  7 12  2  0  0  0
  8 13  1  0  0  0
 13 14  1  0  0  0
 14 15  2  0  0  0
 15 16  4  0  0  0
 14 17  1  0  0  0
 15 18  4  0  0  0
 10 19  2  0  0  0
 19 20  4  0  0  0
 20 21  4  0  0  0
 21 22  4  0  0  0
 22 23  4  0  0  0
 23 24  4  0  0  0
 24 19  4  0  0  0
  3 25  1  0  0  0
  5 26  1  0  0  0
  6 27  1  0  0  0
 10 28  1  0  0  0
 20 29  1  0  0  0
 21 30  1  0  0  0
 23 31  1  0  0  0
 24 32  1  0  0  0
M  END
$$$$
00117001.cdx

Structure written by MVD (www.molegro.com)
 27 28  0  0  1  0            999 V2000
   -1.3803    1.0813    0.0000 C   0  0  0  0  0  0
   -1.3803    0.2563    0.0000 N   0  0  0  0  0  0
   -0.6658   -0.1562    0.0000 C   0  0  0  0  0  0
    0.0487    0.2563    0.0000 C   0  0  0  0  0  0
    0.0487    1.0813    0.0000 C   0  0  0  0  0  0
   -0.6658    1.4938    0.0000 C   0  0  0  0  0  0
   -0.6658    2.3188    0.0000 C   0  0  0  0  0  0
   -2.0947    1.4938    0.0000 C   0  0  0  0  0  0
   -2.8092    1.0813    0.0000 N   0  0  0  0  0  0
   -1.3803   -0.5687    0.0000 C   0  0  0  0  0  0
    0.0487   -0.5687    0.0000 N   0  0  0  0  0  0
   -1.9636   -1.1521    0.0000 O   0  0  0  0  0  0
    0.6321   -1.1521    0.0000 O   0  0  0  0  0  0
    2.0123   -1.5219    0.0000 C   0  0  0  0  0  0
    1.4289   -0.9385    0.0000 C   0  0  0  0  0  0
    1.6425   -0.1417    0.0000 F   0  0  0  0  0  0
    1.7988   -2.3188    0.0000 O   0  0  0  0  0  0
    2.8092   -1.3084    0.0000 O   0  0  0  0  0  0
   -0.6658   -1.2462    0.0000 H   0  0  0  0  0  0
    0.9927    1.6263    0.0000 H   0  0  0  0  0  0
   -1.7082    2.6375    0.0000 H   0  0  0  0  0  0
   -0.1446    2.6375    0.9027 H   0  0  0  0  0  0
   -0.1446    2.6375   -0.9027 H   0  0  0  0  0  0
   -2.0947    2.5838    0.0000 H   0  0  0  0  0  0
   -3.5625    1.7838    0.0000 H   0  0  0  0  0  0
   -2.8238    0.5042   -0.8530 H   0  0  0  0  0  0
   -2.8238    0.5042    0.8530 H   0  0  0  0  0  0
  1  2  1  0  0  0
  2  3  2  0  0  0
  4  3  1  0  0  0
  4  5  1  0  0  0
  5  6  2  0  0  0
  1  6  1  0  0  0
  6  7  1  0  0  0
  1  8  2  0  0  0
  8  9  1  0  0  0
  2 10  1  0  0  0
  4 11  1  0  0  0
 10 11  1  0  0  0
 10 12  2  0  0  0
 11 13  1  0  0  0
 15 13  1  0  0  0
 15 14  2  0  0  0
 15 16  1  0  0  0
 14 17  4  0  0  0
 14 18  4  0  0  0
  3 19  1  0  0  0
  5 20  1  0  0  0
  7 21  1  0  0  0
  7 22  1  0  0  0
  7 23  1  0  0  0
  8 24  1  0  0  0
  9 25  1  0  0  0
  9 26  1  0  0  0
  9 27  1  0  0  0
M  END
$$$$
Unknown 2

Structure written by MVD (www.molegro.com)
 25 26  0  0  1  0            999 V2000
   12.3549  -24.1903    0.0000 O   0  0  0  0  0  0
   13.0646  -24.6066    0.0000 C   0  0  0  0  0  0
   13.7806  -24.2000    0.0000 O   0  0  0  0  0  0
   13.0646  -25.4299    0.0000 C   0  0  0  0  0  0
   13.7647  -25.8507    0.0000 C   0  0  0  0  0  0
   13.7647  -26.6739    0.0000 C   0  0  0  0  0  0
   13.0521  -27.0824    0.0000 C   0  0  0  0  0  0
   12.3354  -26.6659    0.0000 C   0  0  0  0  0  0
   12.3354  -25.8365    0.0000 C   0  0  0  0  0  0
   11.6228  -27.0745    0.0000 C   0  0  0  0  0  0
   10.9061  -26.6537    0.0000 N   0  0  0  0  0  0
   10.1894  -27.0745    0.0000 C   0  0  0  0  0  0
   10.1894  -27.9039    0.0000 C   0  0  0  0  0  0
   10.9061  -28.3125    0.0000 C   0  0  0  0  0  0
   11.6228  -27.9039    0.0000 C   0  0  0  0  0  0
   12.3328  -28.3170    0.0000 N   0  0  0  0  0  0
   14.7134  -25.3140    0.0000 H   0  0  0  0  0  0
   14.7078  -27.2204    0.0000 H   0  0  0  0  0  0
   13.0489  -28.1724    0.0000 H   0  0  0  0  0  0
   11.3955  -25.2845    0.0000 H   0  0  0  0  0  0
    9.2434  -26.5330    0.0000 H   0  0  0  0  0  0
    9.2469  -28.4515    0.0000 H   0  0  0  0  0  0
   10.9061  -29.4025    0.0000 H   0  0  0  0  0  0
   13.2265  -27.8050    0.0000 H   0  0  0  0  0  0
   12.3293  -29.3470    0.0000 H   0  0  0  0  0  0
  1  2  4  0  0  0
  2  3  4  0  0  0
  2  4  1  0  0  0
  4  5  2  0  0  0
  6  5  1  0  0  0
  7  6  2  0  0  0
  8  7  1  0  0  0
  9  8  1  0  0  0
  4  9  1  0  0  0
  8 10  2  0  0  0
 10 11  2  0  0  0
 12 11  1  0  0  0
 13 12  1  0  0  0
 14 13  2  0  0  0
 15 14  2  0  0  0
 10 15  1  0  0  0
 15 16  1  0  0  0
  5 17  1  0  0  0
  6 18  1  0  0  0
  7 19  1  0  0  0
  9 20  1  0  0  0
 12 21  1  0  0  0
 13 22  1  0  0  0
 14 23  1  0  0  0
 16 24  1  0  0  0
 16 25  1  0  0  0
M  END
$$$$
224672

Structure written by MVD (www.molegro.com)
 22 23  0  0  1  0            999 V2000
    5.9913    2.3239    0.0000 Cl  0  0  0  0  0  0
    3.0789   -0.1710    0.0000 S   0  0  0  0  0  0
    1.6500   -1.8210    0.0000 O   0  0  0  0  0  0
    3.0789   -1.8210    0.0000 O   0  0  0  0  0  0
    3.0789    2.3040    0.0000 N   0  0  0  0  0  0
    3.7934    1.0665    0.0000 C   0  0  0  0  0  0
    3.7934    1.8915    0.0000 C   0  0  0  0  0  0
    3.0789    0.6540    0.0000 C   0  0  0  0  0  0
    4.5309    0.6254    0.0000 C   0  0  0  0  0  0
    4.5309    2.3325    0.0000 C   0  0  0  0  0  0
    2.3644    1.0665    0.0000 C   0  0  0  0  0  0
    5.2784    1.0492    0.0000 C   0  0  0  0  0  0
    5.2784    1.9086    0.0000 C   0  0  0  0  0  0
    2.3644    1.8915    0.0000 C   0  0  0  0  0  0
    2.3644   -0.5835    0.0000 C   0  0  0  0  0  0
    2.3644   -1.4085    0.0000 C   0  0  0  0  0  0
    4.5182   -0.4645    0.0000 H   0  0  0  0  0  0
    4.5183    3.4224    0.0000 H   0  0  0  0  0  0
    1.4204    0.5215    0.0000 H   0  0  0  0  0  0
    6.2202    0.5005    0.0000 H   0  0  0  0  0  0
    1.4204    2.4365    0.0000 H   0  0  0  0  0  0
    1.4204   -0.0385    0.0000 H   0  0  0  0  0  0
  1 13  1  0  0  0
  2  8  2  0  0  0
  2 15  1  0  0  0
  3 16  4  0  0  0
  4 16  4  0  0  0
  5  7  2  0  0  0
  5 14  1  0  0  0
  6  7  2  0  0  0
  6  8  1  0  0  0
  6  9  1  0  0  0
  7 10  1  0  0  0
  8 11  1  0  0  0
  9 12  2  0  0  0
 10 13  2  0  0  0
 11 14  2  0  0  0
 12 13  1  0  0  0
 15 16  2  0  0  0
  9 17  1  0  0  0
 10 18  1  0  0  0
 11 19  1  0  0  0
 12 20  1  0  0  0
 14 21  1  0  0  0
 15 22  1  0  0  0
M  END
$$$$
Unknown 3

Structure written by MVD (www.molegro.com)
 23 24  0  0  1  0            999 V2000
    3.0032  -13.5497    0.0000 C   0  0  0  0  0  0
    3.0021  -14.3692    0.0000 C   0  0  0  0  0  0
    3.7101  -14.7782    0.0000 C   0  0  0  0  0  0
    4.4198  -14.3687    0.0000 C   0  0  0  0  0  0
    4.4169  -13.5461    0.0000 C   0  0  0  0  0  0
    3.7083  -13.1408    0.0000 C   0  0  0  0  0  0
    5.1292  -14.7762    0.0000 C   0  0  0  0  0  0
    5.1305  -15.5934    0.0000 O   0  0  0  0  0  0
    5.8363  -14.3665    0.0000 O   0  0  0  0  0  0
    2.2959  -14.7775    0.0000 C   0  0  0  0  0  0
    1.5883  -14.3666    0.0000 C   0  0  0  0  0  0
    0.8807  -14.7740    0.0000 C   0  0  0  0  0  0
    0.8796  -15.5921    0.0000 C   0  0  0  0  0  0
    1.5920  -16.0011    0.0000 N   0  0  0  0  0  0
    2.2966  -15.5913    0.0000 C   0  0  0  0  0  0
    2.0591  -13.0050    0.0000 H   0  0  0  0  0  0
    3.7098  -15.8682    0.0000 H   0  0  0  0  0  0
    5.3588  -12.9975    0.0000 H   0  0  0  0  0  0
    3.7050  -12.0508    0.0000 H   0  0  0  0  0  0
    1.5903  -13.2766    0.0000 H   0  0  0  0  0  0
   -0.0626  -14.2278    0.0000 H   0  0  0  0  0  0
   -0.0641  -16.1376    0.0000 H   0  0  0  0  0  0
    3.2417  -16.1344    0.0000 H   0  0  0  0  0  0
  1  2  1  0  0  0
  2  3  1  0  0  0
  3  4  1  0  0  0
  4  5  1  0  0  0
  5  6  1  0  0  0
  6  1  2  0  0  0
  7  8  4  0  0  0
  7  9  4  0  0  0
  4  7  2  0  0  0
 10 11  1  0  0  0
 11 12  2  0  0  0
 12 13  1  0  0  0
 13 14  1  0  0  0
 14 15  2  0  0  0
 15 10  2  0  0  0
  2 10  2  0  0  0
  1 16  1  0  0  0
  3 17  1  0  0  0
  5 18  1  0  0  0
  6 19  1  0  0  0
 11 20  1  0  0  0
 12 21  1  0  0  0
 13 22  1  0  0  0
 15 23  1  0  0  0
M  END
$$$$
Unknown 4

Structure written by MVD (www.molegro.com)
 23 24  0  0  1  0            999 V2000
    4.5269  -16.2836    0.0000 O   0  0  0  0  0  0
    3.8198  -16.6852    0.0000 C   0  0  0  0  0  0
    3.8198  -17.5002    0.0000 O   0  0  0  0  0  0
    3.1156  -16.2758    0.0000 C   0  0  0  0  0  0
    2.4049  -16.6833    0.0000 C   0  0  0  0  0  0
    1.7006  -16.2700    0.0000 C   0  0  0  0  0  0
    1.7006  -15.4549    0.0000 C   0  0  0  0  0  0
    2.4112  -15.0474    0.0000 C   0  0  0  0  0  0
    3.1156  -15.4549    0.0000 C   0  0  0  0  0  0
    2.4112  -14.2324    0.0000 C   0  0  0  0  0  0
    3.1166  -13.8237    0.0000 C   0  0  0  0  0  0
    3.1166  -13.0068    0.0000 C   0  0  0  0  0  0
    2.4112  -12.5903    0.0000 N   0  0  0  0  0  0
    1.7017  -13.0068    0.0000 C   0  0  0  0  0  0
    1.7017  -13.8237    0.0000 C   0  0  0  0  0  0
    2.3994  -17.7733    0.0000 H   0  0  0  0  0  0
    0.7547  -16.8117    0.0000 H   0  0  0  0  0  0
    0.7574  -14.9085    0.0000 H   0  0  0  0  0  0
    4.0598  -14.9103    0.0000 H   0  0  0  0  0  0
    4.0610  -14.3680    0.0000 H   0  0  0  0  0  0
    4.0632  -12.4664    0.0000 H   0  0  0  0  0  0
    0.7558  -12.4652    0.0000 H   0  0  0  0  0  0
    0.7580  -14.3692    0.0000 H   0  0  0  0  0  0
  1  2  4  0  0  0
  2  3  4  0  0  0
  2  4  2  0  0  0
  4  5  1  0  0  0
  6  5  1  0  0  0
  7  6  2  0  0  0
  8  7  1  0  0  0
  9  8  2  0  0  0
  4  9  1  0  0  0
  8 10  1  0  0  0
 10 11  2  0  0  0
 12 11  1  0  0  0
 13 12  2  0  0  0
 14 13  1  0  0  0
 15 14  2  0  0  0
 10 15  1  0  0  0
  5 16  1  0  0  0
  6 17  1  0  0  0
  7 18  1  0  0  0
  9 19  1  0  0  0
 11 20  1  0  0  0
 12 21  1  0  0  0
 14 22  1  0  0  0
 15 23  1  0  0  0
M  END
$$$$
Unknown 5

Structure written by MVD (www.molegro.com)
 20 21  0  0  1  0            999 V2000
   13.2814  -12.3302    0.0000 O   0  0  0  0  0  0
   13.9918  -12.7398    0.0000 C   0  0  0  0  0  0
   14.7032  -12.3350    0.0000 O   0  0  0  0  0  0
   13.9869  -13.5593    0.0000 C   0  0  0  0  0  0
   14.7003  -13.9740    0.0000 C   0  0  0  0  0  0
   14.6994  -14.7927    0.0000 C   0  0  0  0  0  0
   13.9874  -15.2044    0.0000 C   0  0  0  0  0  0
   13.2740  -14.7938    0.0000 C   0  0  0  0  0  0
   13.2686  -13.9683    0.0000 C   0  0  0  0  0  0
   12.5652  -15.2006    0.0000 C   0  0  0  0  0  0
   11.8170  -14.8708    0.0000 S   0  0  0  0  0  0
   11.2698  -15.4840    0.0000 C   0  0  0  0  0  0
   11.6793  -16.1886    0.0000 C   0  0  0  0  0  0
   12.4816  -16.0160    0.0000 N   0  0  0  0  0  0
   15.6454  -13.4309    0.0000 H   0  0  0  0  0  0
   15.6432  -15.3379    0.0000 H   0  0  0  0  0  0
   13.9885  -16.2944    0.0000 H   0  0  0  0  0  0
   12.3245  -13.4236    0.0000 H   0  0  0  0  0  0
   10.1854  -15.3740    0.0000 H   0  0  0  0  0  0
   11.2386  -17.1855    0.0000 H   0  0  0  0  0  0
  1  2  4  0  0  0
  2  3  4  0  0  0
  2  4  2  0  0  0
  4  5  1  0  0  0
  6  5  2  0  0  0
  7  6  1  0  0  0
  8  7  1  0  0  0
  9  8  1  0  0  0
  4  9  1  0  0  0
  8 10  2  0  0  0
 10 11  1  0  0  0
 12 11  1  0  0  0
 13 12  1  0  0  0
 14 13  2  0  0  0
 10 14  2  0  0  0
  5 15  1  0  0  0
  6 16  1  0  0  0
  7 17  1  0  0  0
  9 18  1  0  0  0
 12 19  1  0  0  0
 13 20  1  0  0  0
M  END
$$$$
Unknown 6

Structure written by MVD (www.molegro.com)
 24 25  0  0  1  0            999 V2000
   10.3417   -3.3667    0.0000 C   0  0  0  0  0  0
    9.6875   -2.9917    0.0000 C   0  0  0  0  0  0
    9.6875   -2.2417    0.0000 C   0  0  0  0  0  0
    9.0375   -1.8750    0.0000 C   0  0  0  0  0  0
   10.3417   -4.1167    0.0000 O   0  0  0  0  0  0
    9.0292   -1.1167    0.0000 C   0  0  0  0  0  0
   10.9917   -2.9917    0.0000 O   0  0  0  0  0  0
    9.0292   -3.3792    0.0000 C   0  0  0  0  0  0
    8.3792   -2.2417    0.0000 C   0  0  0  0  0  0
    8.3792   -3.0000    0.0000 C   0  0  0  0  0  0
    9.6875   -0.7417    0.0000 C   0  0  0  0  0  0
    8.3792   -0.7417    0.0000 C   0  0  0  0  0  0
    9.6875    0.0125    0.0000 C   0  0  0  0  0  0
    8.3792    0.0125    0.0000 C   0  0  0  0  0  0
    9.0292    0.3958    0.0000 C   0  0  0  0  0  0
   10.6287   -1.6920    0.0000 H   0  0  0  0  0  0
    9.0313   -4.4692    0.0000 H   0  0  0  0  0  0
    7.4394   -1.6895    0.0000 H   0  0  0  0  0  0
    7.4340   -3.5429    0.0000 H   0  0  0  0  0  0
   10.6299   -1.2894    0.0000 H   0  0  0  0  0  0
    7.4353   -1.2869    0.0000 H   0  0  0  0  0  0
   10.6325    0.5558    0.0000 H   0  0  0  0  0  0
    7.4327    0.5531    0.0000 H   0  0  0  0  0  0
    9.0262    1.4858    0.0000 H   0  0  0  0  0  0
  2  1  1  0  0  0
  3  2  2  0  0  0
  4  3  2  0  0  0
  5  1  4  0  0  0
  6  4  1  0  0  0
  7  1  4  0  0  0
  8  2  1  0  0  0
  9 10  1  0  0  0
 10  8  2  0  0  0
 11  6  1  0  0  0
 12  6  2  0  0  0
 13 11  2  0  0  0
 14 12  1  0  0  0
 15 14  2  0  0  0
  9  4  1  0  0  0
 15 13  1  0  0  0
  3 16  1  0  0  0
  8 17  1  0  0  0
  9 18  1  0  0  0
 10 19  1  0  0  0
 11 20  1  0  0  0
 12 21  1  0  0  0
 13 22  1  0  0  0
 14 23  1  0  0  0
 15 24  1  0  0  0
M  END
$$$$
Unknown 7

Structure written by MVD (www.molegro.com)
 24 25  0  0  1  0            999 V2000
   -1.9372    0.3246    0.0000 N   0  0  0  0  0  0
   -1.3852    0.9377    0.0000 C   0  0  0  0  0  0
   -0.6315    0.6021    0.0000 C   0  0  0  0  0  0
   -0.1657   -0.8314    0.0000 C   0  0  0  0  0  0
   -0.4206   -1.6161    0.0000 C   0  0  0  0  0  0
   -1.2276   -1.7876    0.0000 C   0  0  0  0  0  0
   -1.7796   -1.1745    0.0000 C   0  0  0  0  0  0
   -1.5247   -0.3899    0.0000 C   0  0  0  0  0  0
   -0.7177   -0.2183    0.0000 C   0  0  0  0  0  0
    0.0830    1.0146    0.0000 C   0  0  0  0  0  0
    0.7975    0.6021    0.0000 C   0  0  0  0  0  0
    1.5119    1.0146    0.0000 C   0  0  0  0  0  0
    2.2264    0.6021    0.0000 C   0  0  0  0  0  0
    2.9409    1.0146    0.0000 O   0  0  0  0  0  0
    2.2264   -0.2229    0.0000 O   0  0  0  0  0  0
   -2.5392    0.3879   -0.8333 H   0  0  0  0  0  0
   -1.6118    2.0039    0.0000 H   0  0  0  0  0  0
    0.9005   -0.6048    0.0000 H   0  0  0  0  0  0
    0.3088   -2.4261    0.0000 H   0  0  0  0  0  0
   -1.5645   -2.8242    0.0000 H   0  0  0  0  0  0
   -2.8458   -1.4011    0.0000 H   0  0  0  0  0  0
    0.0830    2.1046    0.0000 H   0  0  0  0  0  0
    0.7975   -0.4879    0.0000 H   0  0  0  0  0  0
    1.5119    2.1046    0.0000 H   0  0  0  0  0  0
  2  1  1  0  0  0
  8  1  1  0  0  0
  2  3  1  0  0  0
  3  9  2  0  0  0
 10  3  1  0  0  0
  4  5  1  0  0  0
  4  9  2  0  0  0
  5  6  1  0  0  0
  6  7  2  0  0  0
  7  8  2  0  0  0
  8  9  1  0  0  0
 10 11  1  0  0  0
 11 12  2  0  0  0
 12 13  1  0  0  0
 13 14  4  0  0  0
 13 15  4  0  0  0
  1 16  1  0  0  0
  2 17  1  0  0  0
  4 18  1  0  0  0
  5 19  1  0  0  0
  6 20  1  0  0  0
  7 21  1  0  0  0
 10 22  1  0  0  0
 11 23  1  0  0  0
 12 24  1  0  0  0
M  END
$$$$
Unknown 8

Structure written by MVD (www.molegro.com)
 26 27  0  0  1  0            999 V2000
   -3.2961   -0.6950    0.0000 C   0  0  0  0  0  0
   -2.8698    0.0259    0.0000 C   0  0  0  0  0  0
   -2.8964   -1.4136    0.0000 C   0  0  0  0  0  0
   -1.6439   -0.7170    0.0000 C   0  0  0  0  0  0
   -2.0436    0.0016    0.0000 C   0  0  0  0  0  0
   -2.0725   -1.4294    0.0000 C   0  0  0  0  0  0
   -0.8208   -0.7147    0.0000 C   0  0  0  0  0  0
    0.0042   -0.7147    0.0000 C   0  0  0  0  0  0
    0.8292   -0.7147    0.0000 C   0  0  0  0  0  0
    1.2398   -1.4315    0.0000 C   0  0  0  0  0  0
    2.0640   -1.4319    0.0000 C   0  0  0  0  0  0
    2.4773   -0.7169    0.0000 C   0  0  0  0  0  0
    2.0604    0.0000    0.0000 C   0  0  0  0  0  0
    1.2375   -0.0032    0.0000 C   0  0  0  0  0  0
    2.4711    0.7189    0.0000 C   0  0  0  0  0  0
    2.0561    1.4319    0.0000 O   0  0  0  0  0  0
    3.2961    0.7218    0.0000 O   0  0  0  0  0  0
   -4.3860   -0.6806    0.0000 H   0  0  0  0  0  0
   -3.3959    0.9805    0.0000 H   0  0  0  0  0  0
   -3.4579   -2.3478    0.0000 H   0  0  0  0  0  0
   -1.4773    0.9330    0.0000 H   0  0  0  0  0  0
   -1.5451   -2.3833    0.0000 H   0  0  0  0  0  0
    0.6930   -2.3744    0.0000 H   0  0  0  0  0  0
    2.6085   -2.3761    0.0000 H   0  0  0  0  0  0
    3.5673   -0.7155    0.0000 H   0  0  0  0  0  0
    0.6894    0.9390    0.0000 H   0  0  0  0  0  0
  2  1  1  0  0  0
  3  1  2  0  0  0
  4  6  1  0  0  0
  5  2  1  0  0  0
  6  3  1  0  0  0
  4  5  2  0  0  0
  4  7  1  0  0  0
  7  8  1  0  0  0
  8  9  1  0  0  0
  9 10  1  0  0  0
 10 11  2  0  0  0
 11 12  1  0  0  0
 12 13  1  0  0  0
 13 14  2  0  0  0
 14  9  2  0  0  0
 15 16  4  0  0  0
 13 15  1  0  0  0
 15 17  4  0  0  0
  1 18  1  0  0  0
  2 19  1  0  0  0
  3 20  1  0  0  0
  5 21  1  0  0  0
  6 22  1  0  0  0
 10 23  1  0  0  0
 11 24  1  0  0  0
 12 25  1  0  0  0
 14 26  1  0  0  0
M  END
$$$$
Unknown 9

Structure written by MVD (www.molegro.com)
 25 26  0  0  1  0            999 V2000
    9.4771   -9.2654    0.0000 C   0  0  0  0  0  0
    8.7678   -8.8536    0.0000 C   0  0  0  0  0  0
    9.4885  -10.0890    0.0000 O   0  0  0  0  0  0
    6.6288   -7.6182    0.0000 O   0  0  0  0  0  0
    8.7678   -8.0186    0.0000 C   0  0  0  0  0  0
    8.0529   -9.2654    0.0000 C   0  0  0  0  0  0
    7.3437   -8.0300    0.0000 C   0  0  0  0  0  0
   10.1919   -8.8422    0.0000 O   0  0  0  0  0  0
    7.3437   -8.8536    0.0000 C   0  0  0  0  0  0
    8.0529   -7.6068    0.0000 C   0  0  0  0  0  0
    5.9196   -8.0300    0.0000 C   0  0  0  0  0  0
    5.2047   -7.6182    0.0000 C   0  0  0  0  0  0
    5.9196   -8.8422    0.0000 C   0  0  0  0  0  0
    5.2047   -9.2654    0.0000 C   0  0  0  0  0  0
    4.4840   -8.0186    0.0000 C   0  0  0  0  0  0
    4.4840   -8.8536    0.0000 C   0  0  0  0  0  0
    9.7115   -7.4731    0.0000 H   0  0  0  0  0  0
    8.0510  -10.3554    0.0000 H   0  0  0  0  0  0
    6.3991   -9.3974    0.0000 H   0  0  0  0  0  0
    8.0445   -6.5168    0.0000 H   0  0  0  0  0  0
    5.2131   -6.5282    0.0000 H   0  0  0  0  0  0
    6.8665   -9.3820    0.0000 H   0  0  0  0  0  0
    5.2131  -10.3554    0.0000 H   0  0  0  0  0  0
    3.5446   -7.4658    0.0000 H   0  0  0  0  0  0
    3.5413   -9.4007    0.0000 H   0  0  0  0  0  0
  2  1  2  0  0  0
  3  1  4  0  0  0
  4  7  1  0  0  0
  5  2  1  0  0  0
  6  2  1  0  0  0
  7  9  2  0  0  0
  8  1  4  0  0  0
  9  6  2  0  0  0
 10  5  2  0  0  0
 11  4  1  0  0  0
 12 11  1  0  0  0
 13 11  2  0  0  0
 14 13  1  0  0  0
 15 12  2  0  0  0
 16 14  2  0  0  0
 10  7  1  0  0  0
 15 16  1  0  0  0
  5 17  1  0  0  0
  6 18  1  0  0  0
  9 19  1  0  0  0
 10 20  1  0  0  0
 12 21  1  0  0  0
 13 22  1  0  0  0
 14 23  1  0  0  0
 15 24  1  0  0  0
 16 25  1  0  0  0
M  END
$$$$
Unknown 10

Structure written by MVD (www.molegro.com)
 22 23  0  0  1  0            999 V2000
   23.6554  -19.9994    0.0000 C   0  0  0  0  0  0
   22.9428  -20.4080    0.0000 C   0  0  0  0  0  0
   22.2303  -19.9994    0.0000 C   0  0  0  0  0  0
   22.2303  -19.1699    0.0000 C   0  0  0  0  0  0
   22.9428  -18.7533    0.0000 C   0  0  0  0  0  0
   23.6554  -19.1699    0.0000 C   0  0  0  0  0  0
   21.5172  -18.7605    0.0000 C   0  0  0  0  0  0
   20.8028  -19.1788    0.0000 N   0  0  0  0  0  0
   20.8028  -20.0038    0.0000 C   0  0  0  0  0  0
   21.5232  -20.4110    0.0000 C   0  0  0  0  0  0
   20.0903  -20.4196    0.0000 C   0  0  0  0  0  0
   24.3698  -18.7574    0.0000 C   0  0  0  0  0  0
   25.0843  -19.1699    0.0000 O   0  0  0  0  0  0
   24.3698  -17.9324    0.0000 O   0  0  0  0  0  0
   24.5986  -20.5458    0.0000 H   0  0  0  0  0  0
   22.9428  -21.4980    0.0000 H   0  0  0  0  0  0
   22.9428  -17.6633    0.0000 H   0  0  0  0  0  0
   21.5125  -17.6705    0.0000 H   0  0  0  0  0  0
   21.5301  -21.5010    0.0000 H   0  0  0  0  0  0
   20.3404  -21.4805    0.0000 H   0  0  0  0  0  0
   19.5524  -20.1301    0.9027 H   0  0  0  0  0  0
   19.5524  -20.1301   -0.9027 H   0  0  0  0  0  0
  1  2  2  0  0  0
  2  3  2  0  0  0
  4  3  1  0  0  0
  5  4  1  0  0  0
  6  5  1  0  0  0
  1  6  1  0  0  0
  4  7  2  0  0  0
  7  8  2  0  0  0
  8  9  2  0  0  0
  9 10  1  0  0  0
  3 10  2  0  0  0
  9 11  1  0  0  0
  6 12  2  0  0  0
 12 13  4  0  0  0
 12 14  4  0  0  0
  1 15  1  0  0  0
  2 16  1  0  0  0
  5 17  1  0  0  0
  7 18  1  0  0  0
 10 19  1  0  0  0
 11 20  1  0  0  0
 11 21  1  0  0  0
 11 22  1  0  0  0
M  END
$$$$
Unknown 11

Structure written by MVD (www.molegro.com)
 18 19  0  0  1  0            999 V2000
   19.9818    1.8405    0.0000 C   0  0  0  0  0  0
   19.9806    1.0137    0.0000 C   0  0  0  0  0  0
   20.6950    0.6011    0.0000 C   0  0  0  0  0  0
   20.6932    2.2531    0.0000 C   0  0  0  0  0  0
   21.4081    1.8441    0.0000 C   0  0  0  0  0  0
   21.4084    1.0137    0.0000 C   0  0  0  0  0  0
   22.1984    0.7572    0.0000 N   0  0  0  0  0  0
   22.6864    1.4293    0.0000 C   0  0  0  0  0  0
   22.1979    2.1010    0.0000 C   0  0  0  0  0  0
   19.2676    2.2526    0.0000 C   0  0  0  0  0  0
   19.2674    3.0771    0.0000 O   0  0  0  0  0  0
   18.5538    1.8402    0.0000 O   0  0  0  0  0  0
   19.0362    0.4695    0.0000 H   0  0  0  0  0  0
   20.6953   -0.4889    0.0000 H   0  0  0  0  0  0
   20.6900    3.3431    0.0000 H   0  0  0  0  0  0
   22.3857    0.1814   -0.8333 H   0  0  0  0  0  0
   23.7764    1.4297    0.0000 H   0  0  0  0  0  0
   22.5343    3.1378    0.0000 H   0  0  0  0  0  0
  2  3  1  0  0  0
  3  6  2  0  0  0
  1  2  1  0  0  0
  5  4  1  0  0  0
  6  7  1  0  0  0
  7  8  1  0  0  0
  8  9  2  0  0  0
  9  5  1  0  0  0
  4  1  2  0  0  0
  1 10  1  0  0  0
  5  6  2  0  0  0
 10 11  4  0  0  0
 10 12  4  0  0  0
  2 13  1  0  0  0
  3 14  1  0  0  0
  4 15  1  0  0  0
  7 16  1  0  0  0
  8 17  1  0  0  0
  9 18  1  0  0  0
M  END
$$$$
Unknown 12

Structure written by MVD (www.molegro.com)
 26 27  0  0  1  0            999 V2000
   16.6880  -28.9849    0.0000 C   0  0  0  0  0  0
   16.6880  -28.1617    0.0000 C   0  0  0  0  0  0
   17.4024  -27.7561    0.0000 O   0  0  0  0  0  0
   15.9767  -27.7440    0.0000 C   0  0  0  0  0  0
   15.2590  -28.1556    0.0000 C   0  0  0  0  0  0
   14.5475  -27.7423    0.0000 C   0  0  0  0  0  0
   14.5475  -26.9148    0.0000 C   0  0  0  0  0  0
   15.2653  -26.5032    0.0000 C   0  0  0  0  0  0
   15.9767  -26.9148    0.0000 C   0  0  0  0  0  0
   15.2653  -25.6800    0.0000 C   0  0  0  0  0  0
   15.9820  -25.2713    0.0000 C   0  0  0  0  0  0
   15.9820  -24.4420    0.0000 C   0  0  0  0  0  0
   15.2653  -24.0255    0.0000 N   0  0  0  0  0  0
   14.5528  -24.4420    0.0000 C   0  0  0  0  0  0
   14.5528  -25.2713    0.0000 C   0  0  0  0  0  0
   15.6456  -29.3036    0.0000 H   0  0  0  0  0  0
   17.2092  -29.3036   -0.9027 H   0  0  0  0  0  0
   17.2092  -29.3036    0.9027 H   0  0  0  0  0  0
   15.2560  -29.2456    0.0000 H   0  0  0  0  0  0
   13.6028  -28.2861    0.0000 H   0  0  0  0  0  0
   13.6043  -26.3684    0.0000 H   0  0  0  0  0  0
   16.9209  -26.3702    0.0000 H   0  0  0  0  0  0
   16.9245  -25.8188    0.0000 H   0  0  0  0  0  0
   16.9267  -23.8983    0.0000 H   0  0  0  0  0  0
   13.6074  -23.8995    0.0000 H   0  0  0  0  0  0
   13.6096  -25.8176    0.0000 H   0  0  0  0  0  0
  1  2  1  0  0  0
  2  3  2  0  0  0
  2  4  1  0  0  0
  4  5  2  0  0  0
  6  5  2  0  0  0
  7  6  1  0  0  0
  8  7  1  0  0  0
  9  8  2  0  0  0
  4  9  1  0  0  0
  8 10  1  0  0  0
 10 11  1  0  0  0
 12 11  1  0  0  0
 13 12  2  0  0  0
 14 13  2  0  0  0
 15 14  1  0  0  0
 10 15  2  0  0  0
  1 16  1  0  0  0
  1 17  1  0  0  0
  1 18  1  0  0  0
  5 19  1  0  0  0
  6 20  1  0  0  0
  7 21  1  0  0  0
  9 22  1  0  0  0
 11 23  1  0  0  0
 12 24  1  0  0  0
 14 25  1  0  0  0
 15 26  1  0  0  0
M  END
$$$$
Unknown 13

Structure written by MVD (www.molegro.com)
 21 22  0  0  1  0            999 V2000
    0.0573   -3.9589    0.0000 N   0  0  0  0  0  0
    0.0688   -2.3089    0.0000 C   0  0  0  0  0  0
    0.0688   -1.4839    0.0000 C   0  0  0  0  0  0
   -0.6474   -3.5406    0.0000 C   0  0  0  0  0  0
    0.7792   -3.5464    0.0000 C   0  0  0  0  0  0
   -0.6474   -2.7214    0.0000 C   0  0  0  0  0  0
    0.7792   -2.7214    0.0000 C   0  0  0  0  0  0
   -0.6474   -1.0714    0.0000 C   0  0  0  0  0  0
    0.7792   -1.0714    0.0000 C   0  0  0  0  0  0
   -0.6474   -0.2464    0.0000 C   0  0  0  0  0  0
    0.7792   -0.2464    0.0000 C   0  0  0  0  0  0
    0.0688    0.1661    0.0000 C   0  0  0  0  0  0
   -1.5946   -4.0799    0.0000 H   0  0  0  0  0  0
    1.7219   -4.0935    0.0000 H   0  0  0  0  0  0
   -1.5911   -2.1759    0.0000 H   0  0  0  0  0  0
    1.7238   -2.1776    0.0000 H   0  0  0  0  0  0
   -1.5911   -1.6169    0.0000 H   0  0  0  0  0  0
    1.7238   -1.6152    0.0000 H   0  0  0  0  0  0
   -1.5911    0.2991    0.0000 H   0  0  0  0  0  0
    1.7238    0.2974    0.0000 H   0  0  0  0  0  0
    0.0707    1.2561    0.0000 H   0  0  0  0  0  0
  2  7  2  0  0  0
  3  2  1  0  0  0
  4  1  2  0  0  0
  5  1  1  0  0  0
  6  4  1  0  0  0
  7  5  1  0  0  0
  8  3  1  0  0  0
  9  3  2  0  0  0
 10  8  2  0  0  0
 11  9  1  0  0  0
 12 11  2  0  0  0
  2  6  1  0  0  0
 10 12  1  0  0  0
  4 13  1  0  0  0
  5 14  1  0  0  0
  6 15  1  0  0  0
  7 16  1  0  0  0
  8 17  1  0  0  0
  9 18  1  0  0  0
 10 19  1  0  0  0
 11 20  1  0  0  0
 12 21  1  0  0  0
M  END
$$$$
Unknown 14

Structure written by MVD (www.molegro.com)
 14 14  0  0  1  0            999 V2000
   -5.9518    0.3831    0.0000 C   0  0  0  0  0  0
   -6.6663   -0.0295    0.0000 C   0  0  0  0  0  0
   -6.6663   -0.8545    0.0000 C   0  0  0  0  0  0
   -5.9518   -1.2670    0.0000 C   0  0  0  0  0  0
   -5.2373   -0.8545    0.0000 C   0  0  0  0  0  0
   -5.2373   -0.0295    0.0000 C   0  0  0  0  0  0
   -5.9518    1.2081    0.0000 C   0  0  0  0  0  0
   -6.6663    1.6206    0.0000 O   0  0  0  0  0  0
   -5.2373    1.6206    0.0000 O   0  0  0  0  0  0
   -7.6103    0.5155    0.0000 H   0  0  0  0  0  0
   -7.6103   -1.3995    0.0000 H   0  0  0  0  0  0
   -5.9518   -2.3570    0.0000 H   0  0  0  0  0  0
   -4.2933   -1.3995    0.0000 H   0  0  0  0  0  0
   -4.2933    0.5155    0.0000 H   0  0  0  0  0  0
  1  2  4  0  0  0
  2  3  4  0  0  0
  3  4  4  0  0  0
  4  5  4  0  0  0
  5  6  4  0  0  0
  1  6  4  0  0  0
  1  7  2  0  0  0
  7  8  4  0  0  0
  7  9  4  0  0  0
  2 10  1  0  0  0
  3 11  1  0  0  0
  4 12  1  0  0  0
  5 13  1  0  0  0
  6 14  1  0  0  0
M  END
$$$$
Unknown 15

Structure written by MVD (www.molegro.com)
 13 13  0  0  1  0            999 V2000
    7.5135   -3.5285    0.0000 C   0  0  0  0  0  0
    7.5184   -4.3538    0.0000 C   0  0  0  0  0  0
    8.2316   -4.7600    0.0000 N   0  0  0  0  0  0
    8.9445   -4.3454    0.0000 C   0  0  0  0  0  0
    8.9396   -3.5201    0.0000 C   0  0  0  0  0  0
    8.2219   -3.1094    0.0000 C   0  0  0  0  0  0
    9.6593   -4.7538    0.0000 C   0  0  0  0  0  0
    9.6630   -5.5772    0.0000 O   0  0  0  0  0  0
   10.3705   -4.3390    0.0000 O   0  0  0  0  0  0
    6.5650   -2.9913    0.0000 H   0  0  0  0  0  0
    6.5777   -4.9044    0.0000 H   0  0  0  0  0  0
    9.8809   -2.9705    0.0000 H   0  0  0  0  0  0
    8.2140   -2.0194    0.0000 H   0  0  0  0  0  0
  2  3  4  0  0  0
  3  4  4  0  0  0
  4  5  4  0  0  0
  5  6  4  0  0  0
  4  7  1  0  0  0
  1  2  4  0  0  0
  7  8  4  0  0  0
  1  6  4  0  0  0
  7  9  4  0  0  0
  1 10  1  0  0  0
  2 11  1  0  0  0
  5 12  1  0  0  0
  6 13  1  0  0  0
M  END
$$$$
Unknown 16

Structure written by MVD (www.molegro.com)
 19 20  0  0  1  0            999 V2000
   18.0888  -20.4621    0.0000 C   0  0  0  0  0  0
   17.3753  -20.8707    0.0000 C   0  0  0  0  0  0
   16.6617  -20.4621    0.0000 C   0  0  0  0  0  0
   16.6617  -19.6329    0.0000 C   0  0  0  0  0  0
   17.3753  -19.2164    0.0000 C   0  0  0  0  0  0
   18.0888  -19.6329    0.0000 C   0  0  0  0  0  0
   15.9477  -19.2192    0.0000 C   0  0  0  0  0  0
   15.2323  -19.6416    0.0000 N   0  0  0  0  0  0
   15.2323  -20.4664    0.0000 C   0  0  0  0  0  0
   15.9535  -20.8778    0.0000 C   0  0  0  0  0  0
   18.8042  -19.2220    0.0000 C   0  0  0  0  0  0
   19.5177  -19.6362    0.0000 O   0  0  0  0  0  0
   18.8062  -18.3970    0.0000 O   0  0  0  0  0  0
   19.0318  -21.0088    0.0000 H   0  0  0  0  0  0
   17.3753  -21.9607    0.0000 H   0  0  0  0  0  0
   17.3753  -18.1264    0.0000 H   0  0  0  0  0  0
   15.9432  -18.1292    0.0000 H   0  0  0  0  0  0
   14.2898  -21.0139    0.0000 H   0  0  0  0  0  0
   15.9603  -21.9678    0.0000 H   0  0  0  0  0  0
  1  2  2  0  0  0
  2  3  1  0  0  0
  4  3  1  0  0  0
  5  4  1  0  0  0
  6  5  1  0  0  0
  1  6  1  0  0  0
  4  7  2  0  0  0
  7  8  2  0  0  0
  8  9  2  0  0  0
  9 10  1  0  0  0
  3 10  2  0  0  0
  6 11  2  0  0  0
 11 12  4  0  0  0
 11 13  4  0  0  0
  1 14  1  0  0  0
  2 15  1  0  0  0
  5 16  1  0  0  0
  7 17  1  0  0  0
  9 18  1  0  0  0
 10 19  1  0  0  0
M  END
$$$$
Unknown 17

Structure written by MVD (www.molegro.com)
 19 20  0  0  1  0            999 V2000
   18.0888  -20.4621    0.0000 C   0  0  0  0  0  0
   17.3753  -20.8707    0.0000 C   0  0  0  0  0  0
   16.6617  -20.4621    0.0000 C   0  0  0  0  0  0
   16.6617  -19.6329    0.0000 C   0  0  0  0  0  0
   17.3753  -19.2164    0.0000 C   0  0  0  0  0  0
   18.0888  -19.6329    0.0000 C   0  0  0  0  0  0
   15.9477  -19.2192    0.0000 C   0  0  0  0  0  0
   15.2323  -19.6416    0.0000 N   0  0  0  0  0  0
   15.2323  -20.4664    0.0000 C   0  0  0  0  0  0
   15.9535  -20.8778    0.0000 C   0  0  0  0  0  0
   18.8042  -19.2220    0.0000 C   0  0  0  0  0  0
   19.5177  -19.6362    0.0000 O   0  0  0  0  0  0
   18.8062  -18.3970    0.0000 O   0  0  0  0  0  0
   19.0318  -21.0088    0.0000 H   0  0  0  0  0  0
   17.3753  -21.9607    0.0000 H   0  0  0  0  0  0
   17.3753  -18.1264    0.0000 H   0  0  0  0  0  0
   15.9432  -18.1292    0.0000 H   0  0  0  0  0  0
   14.2898  -21.0139    0.0000 H   0  0  0  0  0  0
   15.9603  -21.9678    0.0000 H   0  0  0  0  0  0
  1  2  2  0  0  0
  2  3  1  0  0  0
  4  3  1  0  0  0
  5  4  1  0  0  0
  6  5  1  0  0  0
  1  6  1  0  0  0
  4  7  2  0  0  0
  7  8  2  0  0  0
  8  9  2  0  0  0
  9 10  1  0  0  0
  3 10  2  0  0  0
  6 11  2  0  0  0
 11 12  4  0  0  0
 11 13  4  0  0  0
  1 14  1  0  0  0
  2 15  1  0  0  0
  5 16  1  0  0  0
  7 17  1  0  0  0
  9 18  1  0  0  0
 10 19  1  0  0  0
M  END
$$$$
Unknown 18

Structure written by MVD (www.molegro.com)
 26 27  0  0  1  0            999 V2000
   16.6880  -28.9849    0.0000 C   0  0  0  0  0  0
   16.6880  -28.1617    0.0000 C   0  0  0  0  0  0
   17.4024  -27.7561    0.0000 O   0  0  0  0  0  0
   15.9767  -27.7440    0.0000 C   0  0  0  0  0  0
   15.2590  -28.1556    0.0000 C   0  0  0  0  0  0
   14.5475  -27.7423    0.0000 C   0  0  0  0  0  0
   14.5475  -26.9148    0.0000 C   0  0  0  0  0  0
   15.2653  -26.5032    0.0000 C   0  0  0  0  0  0
   15.9767  -26.9148    0.0000 C   0  0  0  0  0  0
   15.2653  -25.6800    0.0000 C   0  0  0  0  0  0
   15.9820  -25.2713    0.0000 C   0  0  0  0  0  0
   15.9820  -24.4420    0.0000 C   0  0  0  0  0  0
   15.2653  -24.0255    0.0000 N   0  0  0  0  0  0
   14.5528  -24.4420    0.0000 C   0  0  0  0  0  0
   14.5528  -25.2713    0.0000 C   0  0  0  0  0  0
   15.6456  -29.3036    0.0000 H   0  0  0  0  0  0
   17.2092  -29.3036   -0.9027 H   0  0  0  0  0  0
   17.2092  -29.3036    0.9027 H   0  0  0  0  0  0
   15.2560  -29.2456    0.0000 H   0  0  0  0  0  0
   13.6028  -28.2861    0.0000 H   0  0  0  0  0  0
   13.6043  -26.3684    0.0000 H   0  0  0  0  0  0
   16.9209  -26.3702    0.0000 H   0  0  0  0  0  0
   16.9245  -25.8188    0.0000 H   0  0  0  0  0  0
   16.9267  -23.8983    0.0000 H   0  0  0  0  0  0
   13.6074  -23.8995    0.0000 H   0  0  0  0  0  0
   13.6096  -25.8176    0.0000 H   0  0  0  0  0  0
  1  2  1  0  0  0
  2  3  2  0  0  0
  2  4  1  0  0  0
  4  5  2  0  0  0
  6  5  2  0  0  0
  7  6  1  0  0  0
  8  7  1  0  0  0
  9  8  2  0  0  0
  4  9  1  0  0  0
  8 10  1  0  0  0
 10 11  1  0  0  0
 12 11  1  0  0  0
 13 12  2  0  0  0
 14 13  2  0  0  0
 15 14  1  0  0  0
 10 15  2  0  0  0
  1 16  1  0  0  0
  1 17  1  0  0  0
  1 18  1  0  0  0
  5 19  1  0  0  0
  6 20  1  0  0  0
  7 21  1  0  0  0
  9 22  1  0  0  0
 11 23  1  0  0  0
 12 24  1  0  0  0
 14 25  1  0  0  0
 15 26  1  0  0  0
M  END
$$$$
Unknown 19

Structure written by MVD (www.molegro.com)
 14 14  0  0  1  0            999 V2000
   -5.9518    0.3831    0.0000 C   0  0  0  0  0  0
   -6.6663   -0.0295    0.0000 C   0  0  0  0  0  0
   -6.6663   -0.8545    0.0000 C   0  0  0  0  0  0
   -5.9518   -1.2670    0.0000 C   0  0  0  0  0  0
   -5.2373   -0.8545    0.0000 C   0  0  0  0  0  0
   -5.2373   -0.0295    0.0000 C   0  0  0  0  0  0
   -5.9518    1.2081    0.0000 C   0  0  0  0  0  0
   -6.6663    1.6206    0.0000 O   0  0  0  0  0  0
   -5.2373    1.6206    0.0000 O   0  0  0  0  0  0
   -7.6103    0.5155    0.0000 H   0  0  0  0  0  0
   -7.6103   -1.3995    0.0000 H   0  0  0  0  0  0
   -5.9518   -2.3570    0.0000 H   0  0  0  0  0  0
   -4.2933   -1.3995    0.0000 H   0  0  0  0  0  0
   -4.2933    0.5155    0.0000 H   0  0  0  0  0  0
  1  2  4  0  0  0
  2  3  4  0  0  0
  3  4  4  0  0  0
  4  5  4  0  0  0
  5  6  4  0  0  0
  1  6  4  0  0  0
  1  7  2  0  0  0
  7  8  4  0  0  0
  7  9  4  0  0  0
  2 10  1  0  0  0
  3 11  1  0  0  0
  4 12  1  0  0  0
  5 13  1  0  0  0
  6 14  1  0  0  0
M  END
$$$$
Unknown 20

Structure written by MVD (www.molegro.com)
 24 25  0  0  1  0            999 V2000
   10.3417   -3.3667    0.0000 C   0  0  0  0  0  0
    9.6875   -2.9917    0.0000 C   0  0  0  0  0  0
    9.6875   -2.2417    0.0000 C   0  0  0  0  0  0
    9.0375   -1.8750    0.0000 C   0  0  0  0  0  0
   10.3417   -4.1167    0.0000 O   0  0  0  0  0  0
    9.0292   -1.1167    0.0000 C   0  0  0  0  0  0
   10.9917   -2.9917    0.0000 O   0  0  0  0  0  0
    9.0292   -3.3792    0.0000 C   0  0  0  0  0  0
    8.3792   -2.2417    0.0000 C   0  0  0  0  0  0
    8.3792   -3.0000    0.0000 C   0  0  0  0  0  0
    9.6875   -0.7417    0.0000 C   0  0  0  0  0  0
    8.3792   -0.7417    0.0000 C   0  0  0  0  0  0
    9.6875    0.0125    0.0000 C   0  0  0  0  0  0
    8.3792    0.0125    0.0000 C   0  0  0  0  0  0
    9.0292    0.3958    0.0000 C   0  0  0  0  0  0
   10.6287   -1.6920    0.0000 H   0  0  0  0  0  0
    9.0313   -4.4692    0.0000 H   0  0  0  0  0  0
    7.4394   -1.6895    0.0000 H   0  0  0  0  0  0
    7.4340   -3.5429    0.0000 H   0  0  0  0  0  0
   10.6299   -1.2894    0.0000 H   0  0  0  0  0  0
    7.4353   -1.2869    0.0000 H   0  0  0  0  0  0
   10.6325    0.5558    0.0000 H   0  0  0  0  0  0
    7.4327    0.5531    0.0000 H   0  0  0  0  0  0
    9.0262    1.4858    0.0000 H   0  0  0  0  0  0
  2  1  1  0  0  0
  3  2  2  0  0  0
  4  3  2  0  0  0
  5  1  4  0  0  0
  6  4  1  0  0  0
  7  1  4  0  0  0
  8  2  1  0  0  0
  9 10  1  0  0  0
 10  8  2  0  0  0
 11  6  1  0  0  0
 12  6  2  0  0  0
 13 11  2  0  0  0
 14 12  1  0  0  0
 15 14  2  0  0  0
  9  4  1  0  0  0
 15 13  1  0  0  0
  3 16  1  0  0  0
  8 17  1  0  0  0
  9 18  1  0  0  0
 10 19  1  0  0  0
 11 20  1  0  0  0
 12 21  1  0  0  0
 13 22  1  0  0  0
 14 23  1  0  0  0
 15 24  1  0  0  0
M  END
$$$$
Unknown 21

Structure written by MVD (www.molegro.com)
 28 30  0  0  1  0            999 V2000
    6.0630  -13.2413    0.0000 N   0  0  0  0  0  0
    6.8413  -13.4952    0.0000 C   0  0  0  0  0  0
    5.2308  -13.2455    0.0000 C   0  0  0  0  0  0
    7.3281  -12.8211    0.0000 C   0  0  0  0  0  0
    6.0547  -12.4215    0.0000 C   0  0  0  0  0  0
    5.2308  -12.4215    0.0000 C   0  0  0  0  0  0
    6.8330  -12.1594    0.0000 C   0  0  0  0  0  0
    7.1034  -14.2775    0.0000 C   0  0  0  0  0  0
    8.2020   -9.9997    0.0000 C   0  0  0  0  0  0
    8.4891  -10.7736    0.0000 C   0  0  0  0  0  0
    8.1520  -12.8211    0.0000 S   0  0  0  0  0  0
    9.2881  -10.9859    0.0000 N   0  0  0  0  0  0
    8.0396  -11.4603    0.0000 C   0  0  0  0  0  0
    4.6440  -13.8280    0.0000 O   0  0  0  0  0  0
    8.7221   -9.3630    0.0000 N   0  0  0  0  0  0
    8.5598  -12.1052    0.0000 C   0  0  0  0  0  0
    4.4978  -12.0325    0.0000 C   0  0  0  0  0  0
    7.3905   -9.8707    0.0000 O   0  0  0  0  0  0
    6.5540  -14.8892    0.0000 O   0  0  0  0  0  0
    9.3255  -11.8098    0.0000 C   0  0  0  0  0  0
    7.9106  -14.4440    0.0000 O   0  0  0  0  0  0
    7.0909  -11.3729    0.0000 C   0  0  0  0  0  0
    4.4745  -11.2041    0.0000 O   0  0  0  0  0  0
    8.4267   -8.5890    0.0000 C   0  0  0  0  0  0
    9.5377   -9.4961    0.0000 C   0  0  0  0  0  0
    3.8042  -12.4672    0.0000 C   0  0  0  0  0  0
    6.0505  -11.5934    0.0000 H   0  0  0  0  0  0
    5.2266  -11.5976    0.0000 H   0  0  0  0  0  0
  2  1  1  0  0  0
  3  1  1  0  0  0
  4  2  2  0  0  0
  5  1  1  0  0  0
  6  5  1  0  0  0
  7  5  1  0  0  0
  8  2  1  0  0  0
 10  9  1  0  0  0
 10 13  4  0  0  0
 11  4  1  0  0  0
 12 20  4  0  0  0
 13 16  4  0  0  0
 14  3  2  0  0  0
 15  9  1  0  0  0
 16 11  1  0  0  0
 17  6  1  0  0  0
 18  9  2  0  0  0
 19  8  2  0  0  0
 20 16  4  0  0  0
 21  8  1  0  0  0
  7 22  1  0  0  0
 17 23  1  0  0  0
 24 15  1  0  0  0
 25 15  1  0  0  0
 26 17  1  0  0  0
  5 27  1  0  0  0
  6 28  1  0  0  0
  4  7  1  0  0  0
  6  3  1  0  0  0
 12 10  4  0  0  0
M  END
$$$$
Unknown 22

Structure written by MVD (www.molegro.com)
 32 34  0  0  1  0            999 V2000
   25.2422  -24.4396    0.0000 C   0  0  0  0  0  0
   25.9599  -24.8524    0.0000 C   0  0  0  0  0  0
   26.6734  -24.4396    0.0000 C   0  0  0  0  0  0
   26.6734  -23.6146    0.0000 C   0  0  0  0  0  0
   25.9599  -23.1941    0.0000 N   0  0  0  0  0  0
   25.2422  -23.6146    0.0000 C   0  0  0  0  0  0
   25.9599  -25.6754    0.0000 C   0  0  0  0  0  0
   26.6734  -26.0840    0.0000 C   0  0  0  0  0  0
   26.6734  -26.9090    0.0000 C   0  0  0  0  0  0
   25.9599  -27.3296    0.0000 C   0  0  0  0  0  0
   25.2422  -26.9090    0.0000 C   0  0  0  0  0  0
   25.2422  -26.0840    0.0000 C   0  0  0  0  0  0
   24.5287  -27.3219    0.0000 C   0  0  0  0  0  0
   23.8205  -26.9043    0.0000 C   0  0  0  0  0  0
   23.0955  -27.3158    0.0000 C   0  0  0  0  0  0
   23.0955  -28.1450    0.0000 N   0  0  0  0  0  0
   23.8142  -28.5564    0.0000 C   0  0  0  0  0  0
   24.5287  -28.1450    0.0000 C   0  0  0  0  0  0
   27.3869  -27.3219    0.0000 C   0  0  0  0  0  0
   27.3869  -28.1450    0.0000 O   0  0  0  0  0  0
   28.0969  -26.9072    0.0000 O   0  0  0  0  0  0
   24.2987  -24.9854    0.0000 H   0  0  0  0  0  0
   27.6176  -24.9842    0.0000 H   0  0  0  0  0  0
   27.6198  -23.0738    0.0000 H   0  0  0  0  0  0
   24.2965  -23.0726    0.0000 H   0  0  0  0  0  0
   27.6164  -25.5373    0.0000 H   0  0  0  0  0  0
   25.9613  -28.4196    0.0000 H   0  0  0  0  0  0
   24.2999  -25.5361    0.0000 H   0  0  0  0  0  0
   23.8295  -25.8143    0.0000 H   0  0  0  0  0  0
   22.1535  -26.7673    0.0000 H   0  0  0  0  0  0
   23.8156  -29.6464    0.0000 H   0  0  0  0  0  0
   25.4723  -28.6906    0.0000 H   0  0  0  0  0  0
  1  2  1  0  0  0
  3  2  1  0  0  0
  4  3  1  0  0  0
  5  4  2  0  0  0
  6  5  1  0  0  0
  1  6  2  0  0  0
  2  7  2  0  0  0
  7  8  2  0  0  0
  8  9  1  0  0  0
  9 10  1  0  0  0
 10 11  1  0  0  0
 12 11  1  0  0  0
  7 12  1  0  0  0
 11 13  2  0  0  0
 13 14  2  0  0  0
 15 14  1  0  0  0
 16 15  1  0  0  0
 17 16  2  0  0  0
 18 17  1  0  0  0
 13 18  1  0  0  0
  9 19  2  0  0  0
 19 20  4  0  0  0
 19 21  4  0  0  0
  1 22  1  0  0  0
  3 23  1  0  0  0
  4 24  1  0  0  0
  6 25  1  0  0  0
  8 26  1  0  0  0
 10 27  1  0  0  0
 12 28  1  0  0  0
 14 29  1  0  0  0
 15 30  1  0  0  0
 17 31  1  0  0  0
 18 32  1  0  0  0
M  END
$$$$
Unknown 23

Structure written by MVD (www.molegro.com)
 25 26  0  0  1  0            999 V2000
   12.3549  -24.1903    0.0000 O   0  0  0  0  0  0
   13.0646  -24.6066    0.0000 C   0  0  0  0  0  0
   13.7806  -24.2000    0.0000 O   0  0  0  0  0  0
   13.0646  -25.4299    0.0000 C   0  0  0  0  0  0
   13.7647  -25.8507    0.0000 C   0  0  0  0  0  0
   13.7647  -26.6739    0.0000 C   0  0  0  0  0  0
   13.0521  -27.0824    0.0000 C   0  0  0  0  0  0
   12.3354  -26.6659    0.0000 C   0  0  0  0  0  0
   12.3354  -25.8365    0.0000 C   0  0  0  0  0  0
   11.6228  -27.0745    0.0000 C   0  0  0  0  0  0
   10.9061  -26.6537    0.0000 N   0  0  0  0  0  0
   10.1894  -27.0745    0.0000 C   0  0  0  0  0  0
   10.1894  -27.9039    0.0000 C   0  0  0  0  0  0
   10.9061  -28.3125    0.0000 C   0  0  0  0  0  0
   11.6228  -27.9039    0.0000 C   0  0  0  0  0  0
   12.3328  -28.3170    0.0000 N   0  0  0  0  0  0
   14.7134  -25.3140    0.0000 H   0  0  0  0  0  0
   14.7078  -27.2204    0.0000 H   0  0  0  0  0  0
   13.0489  -28.1724    0.0000 H   0  0  0  0  0  0
   11.3955  -25.2845    0.0000 H   0  0  0  0  0  0
    9.2434  -26.5330    0.0000 H   0  0  0  0  0  0
    9.2469  -28.4515    0.0000 H   0  0  0  0  0  0
   10.9061  -29.4025    0.0000 H   0  0  0  0  0  0
   13.2265  -27.8050    0.0000 H   0  0  0  0  0  0
   12.3293  -29.3470    0.0000 H   0  0  0  0  0  0
  1  2  4  0  0  0
  2  3  4  0  0  0
  2  4  1  0  0  0
  4  5  2  0  0  0
  6  5  1  0  0  0
  7  6  2  0  0  0
  8  7  1  0  0  0
  9  8  1  0  0  0
  4  9  1  0  0  0
  8 10  2  0  0  0
 10 11  2  0  0  0
 12 11  1  0  0  0
 13 12  1  0  0  0
 14 13  2  0  0  0
 15 14  2  0  0  0
 10 15  1  0  0  0
 15 16  1  0  0  0
  5 17  1  0  0  0
  6 18  1  0  0  0
  7 19  1  0  0  0
  9 20  1  0  0  0
 12 21  1  0  0  0
 13 22  1  0  0  0
 14 23  1  0  0  0
 16 24  1  0  0  0
 16 25  1  0  0  0
M  END
$$$$
Unknown 24

Structure written by MVD (www.molegro.com)
 25 26  0  0  1  0            999 V2000
    9.4771   -9.2654    0.0000 C   0  0  0  0  0  0
    8.7678   -8.8536    0.0000 C   0  0  0  0  0  0
    9.4885  -10.0890    0.0000 O   0  0  0  0  0  0
    6.6288   -7.6182    0.0000 O   0  0  0  0  0  0
    8.7678   -8.0186    0.0000 C   0  0  0  0  0  0
    8.0529   -9.2654    0.0000 C   0  0  0  0  0  0
    7.3437   -8.0300    0.0000 C   0  0  0  0  0  0
   10.1919   -8.8422    0.0000 O   0  0  0  0  0  0
    7.3437   -8.8536    0.0000 C   0  0  0  0  0  0
    8.0529   -7.6068    0.0000 C   0  0  0  0  0  0
    5.9196   -8.0300    0.0000 C   0  0  0  0  0  0
    5.2047   -7.6182    0.0000 C   0  0  0  0  0  0
    5.9196   -8.8422    0.0000 C   0  0  0  0  0  0
    5.2047   -9.2654    0.0000 C   0  0  0  0  0  0
    4.4840   -8.0186    0.0000 C   0  0  0  0  0  0
    4.4840   -8.8536    0.0000 C   0  0  0  0  0  0
    9.7115   -7.4731    0.0000 H   0  0  0  0  0  0
    8.0510  -10.3554    0.0000 H   0  0  0  0  0  0
    6.3991   -9.3974    0.0000 H   0  0  0  0  0  0
    8.0445   -6.5168    0.0000 H   0  0  0  0  0  0
    5.2131   -6.5282    0.0000 H   0  0  0  0  0  0
    6.8665   -9.3820    0.0000 H   0  0  0  0  0  0
    5.2131  -10.3554    0.0000 H   0  0  0  0  0  0
    3.5446   -7.4658    0.0000 H   0  0  0  0  0  0
    3.5413   -9.4007    0.0000 H   0  0  0  0  0  0
  2  1  2  0  0  0
  3  1  4  0  0  0
  4  7  1  0  0  0
  5  2  1  0  0  0
  6  2  1  0  0  0
  7  9  2  0  0  0
  8  1  4  0  0  0
  9  6  2  0  0  0
 10  5  2  0  0  0
 11  4  1  0  0  0
 12 11  1  0  0  0
 13 11  2  0  0  0
 14 13  1  0  0  0
 15 12  2  0  0  0
 16 14  2  0  0  0
 10  7  1  0  0  0
 15 16  1  0  0  0
  5 17  1  0  0  0
  6 18  1  0  0  0
  9 19  1  0  0  0
 10 20  1  0  0  0
 12 21  1  0  0  0
 13 22  1  0  0  0
 14 23  1  0  0  0
 15 24  1  0  0  0
 16 25  1  0  0  0
M  END
$$$$
Unknown 25

Structure written by MVD (www.molegro.com)
 18 19  0  0  1  0            999 V2000
   19.9818    1.8405    0.0000 C   0  0  0  0  0  0
   19.9806    1.0137    0.0000 C   0  0  0  0  0  0
   20.6950    0.6011    0.0000 C   0  0  0  0  0  0
   20.6932    2.2531    0.0000 C   0  0  0  0  0  0
   21.4081    1.8441    0.0000 C   0  0  0  0  0  0
   21.4084    1.0137    0.0000 C   0  0  0  0  0  0
   22.1984    0.7572    0.0000 N   0  0  0  0  0  0
   22.6864    1.4293    0.0000 C   0  0  0  0  0  0
   22.1979    2.1010    0.0000 C   0  0  0  0  0  0
   19.2676    2.2526    0.0000 C   0  0  0  0  0  0
   19.2674    3.0771    0.0000 O   0  0  0  0  0  0
   18.5538    1.8402    0.0000 O   0  0  0  0  0  0
   19.0362    0.4695    0.0000 H   0  0  0  0  0  0
   20.6953   -0.4889    0.0000 H   0  0  0  0  0  0
   20.6900    3.3431    0.0000 H   0  0  0  0  0  0
   22.3857    0.1814   -0.8333 H   0  0  0  0  0  0
   23.7764    1.4297    0.0000 H   0  0  0  0  0  0
   22.5343    3.1378    0.0000 H   0  0  0  0  0  0
  2  3  1  0  0  0
  3  6  2  0  0  0
  1  2  1  0  0  0
  5  4  1  0  0  0
  6  7  1  0  0  0
  7  8  1  0  0  0
  8  9  2  0  0  0
  9  5  1  0  0  0
  4  1  2  0  0  0
  1 10  1  0  0  0
  5  6  2  0  0  0
 10 11  4  0  0  0
 10 12  4  0  0  0
  2 13  1  0  0  0
  3 14  1  0  0  0
  4 15  1  0  0  0
  7 16  1  0  0  0
  8 17  1  0  0  0
  9 18  1  0  0  0
M  END
$$$$
Unknown 26

Structure written by MVD (www.molegro.com)
 24 25  0  0  1  0            999 V2000
   -1.9372    0.3246    0.0000 N   0  0  0  0  0  0
   -1.3852    0.9377    0.0000 C   0  0  0  0  0  0
   -0.6315    0.6021    0.0000 C   0  0  0  0  0  0
   -0.1657   -0.8314    0.0000 C   0  0  0  0  0  0
   -0.4206   -1.6161    0.0000 C   0  0  0  0  0  0
   -1.2276   -1.7876    0.0000 C   0  0  0  0  0  0
   -1.7796   -1.1745    0.0000 C   0  0  0  0  0  0
   -1.5247   -0.3899    0.0000 C   0  0  0  0  0  0
   -0.7177   -0.2183    0.0000 C   0  0  0  0  0  0
    0.0830    1.0146    0.0000 C   0  0  0  0  0  0
    0.7975    0.6021    0.0000 C   0  0  0  0  0  0
    1.5119    1.0146    0.0000 C   0  0  0  0  0  0
    2.2264    0.6021    0.0000 C   0  0  0  0  0  0
    2.9409    1.0146    0.0000 O   0  0  0  0  0  0
    2.2264   -0.2229    0.0000 O   0  0  0  0  0  0
   -2.5392    0.3879   -0.8333 H   0  0  0  0  0  0
   -1.6118    2.0039    0.0000 H   0  0  0  0  0  0
    0.9005   -0.6048    0.0000 H   0  0  0  0  0  0
    0.3088   -2.4261    0.0000 H   0  0  0  0  0  0
   -1.5645   -2.8242    0.0000 H   0  0  0  0  0  0
   -2.8458   -1.4011    0.0000 H   0  0  0  0  0  0
    0.0830    2.1046    0.0000 H   0  0  0  0  0  0
    0.7975   -0.4879    0.0000 H   0  0  0  0  0  0
    1.5119    2.1046    0.0000 H   0  0  0  0  0  0
  2  1  1  0  0  0
  8  1  1  0  0  0
  2  3  1  0  0  0
  3  9  2  0  0  0
 10  3  1  0  0  0
  4  5  1  0  0  0
  4  9  2  0  0  0
  5  6  1  0  0  0
  6  7  2  0  0  0
  7  8  2  0  0  0
  8  9  1  0  0  0
 10 11  1  0  0  0
 11 12  2  0  0  0
 12 13  1  0  0  0
 13 14  4  0  0  0
 13 15  4  0  0  0
  1 16  1  0  0  0
  2 17  1  0  0  0
  4 18  1  0  0  0
  5 19  1  0  0  0
  6 20  1  0  0  0
  7 21  1  0  0  0
 10 22  1  0  0  0
 11 23  1  0  0  0
 12 24  1  0  0  0
M  END
$$$$
Unknown 27

Structure written by MVD (www.molegro.com)
 23 24  0  0  1  0            999 V2000
    4.5269  -16.2836    0.0000 O   0  0  0  0  0  0
    3.8198  -16.6852    0.0000 C   0  0  0  0  0  0
    3.8198  -17.5002    0.0000 O   0  0  0  0  0  0
    3.1156  -16.2758    0.0000 C   0  0  0  0  0  0
    2.4049  -16.6833    0.0000 C   0  0  0  0  0  0
    1.7006  -16.2700    0.0000 C   0  0  0  0  0  0
    1.7006  -15.4549    0.0000 C   0  0  0  0  0  0
    2.4112  -15.0474    0.0000 C   0  0  0  0  0  0
    3.1156  -15.4549    0.0000 C   0  0  0  0  0  0
    2.4112  -14.2324    0.0000 C   0  0  0  0  0  0
    3.1166  -13.8237    0.0000 C   0  0  0  0  0  0
    3.1166  -13.0068    0.0000 C   0  0  0  0  0  0
    2.4112  -12.5903    0.0000 N   0  0  0  0  0  0
    1.7017  -13.0068    0.0000 C   0  0  0  0  0  0
    1.7017  -13.8237    0.0000 C   0  0  0  0  0  0
    2.3994  -17.7733    0.0000 H   0  0  0  0  0  0
    0.7547  -16.8117    0.0000 H   0  0  0  0  0  0
    0.7574  -14.9085    0.0000 H   0  0  0  0  0  0
    4.0598  -14.9103    0.0000 H   0  0  0  0  0  0
    4.0610  -14.3680    0.0000 H   0  0  0  0  0  0
    4.0632  -12.4664    0.0000 H   0  0  0  0  0  0
    0.7558  -12.4652    0.0000 H   0  0  0  0  0  0
    0.7580  -14.3692    0.0000 H   0  0  0  0  0  0
  1  2  4  0  0  0
  2  3  4  0  0  0
  2  4  2  0  0  0
  4  5  1  0  0  0
  6  5  1  0  0  0
  7  6  2  0  0  0
  8  7  1  0  0  0
  9  8  2  0  0  0
  4  9  1  0  0  0
  8 10  1  0  0  0
 10 11  2  0  0  0
 12 11  1  0  0  0
 13 12  2  0  0  0
 14 13  1  0  0  0
 15 14  2  0  0  0
 10 15  1  0  0  0
  5 16  1  0  0  0
  6 17  1  0  0  0
  7 18  1  0  0  0
  9 19  1  0  0  0
 11 20  1  0  0  0
 12 21  1  0  0  0
 14 22  1  0  0  0
 15 23  1  0  0  0
M  END
$$$$
Unknown 28

Structure written by MVD (www.molegro.com)
 28 30  0  0  1  0            999 V2000
    6.0630  -13.2413    0.0000 N   0  0  0  0  0  0
    6.8413  -13.4952    0.0000 C   0  0  0  0  0  0
    5.2308  -13.2455    0.0000 C   0  0  0  0  0  0
    7.3281  -12.8211    0.0000 C   0  0  0  0  0  0
    6.0547  -12.4215    0.0000 C   0  0  0  0  0  0
    5.2308  -12.4215    0.0000 C   0  0  0  0  0  0
    6.8330  -12.1594    0.0000 C   0  0  0  0  0  0
    7.1034  -14.2775    0.0000 C   0  0  0  0  0  0
    8.2020   -9.9997    0.0000 C   0  0  0  0  0  0
    8.4891  -10.7736    0.0000 C   0  0  0  0  0  0
    8.1520  -12.8211    0.0000 S   0  0  0  0  0  0
    9.2881  -10.9859    0.0000 N   0  0  0  0  0  0
    8.0396  -11.4603    0.0000 C   0  0  0  0  0  0
    4.6440  -13.8280    0.0000 O   0  0  0  0  0  0
    8.7221   -9.3630    0.0000 N   0  0  0  0  0  0
    8.5598  -12.1052    0.0000 C   0  0  0  0  0  0
    4.4978  -12.0325    0.0000 C   0  0  0  0  0  0
    7.3905   -9.8707    0.0000 O   0  0  0  0  0  0
    6.5540  -14.8892    0.0000 O   0  0  0  0  0  0
    9.3255  -11.8098    0.0000 C   0  0  0  0  0  0
    7.9106  -14.4440    0.0000 O   0  0  0  0  0  0
    7.0909  -11.3729    0.0000 C   0  0  0  0  0  0
    4.4745  -11.2041    0.0000 O   0  0  0  0  0  0
    8.4267   -8.5890    0.0000 C   0  0  0  0  0  0
    9.5377   -9.4961    0.0000 C   0  0  0  0  0  0
    3.8042  -12.4672    0.0000 C   0  0  0  0  0  0
    6.0505  -11.5934    0.0000 H   0  0  0  0  0  0
    5.2266  -11.5976    0.0000 H   0  0  0  0  0  0
  2  1  1  0  0  0
  3  1  1  0  0  0
  4  2  2  0  0  0
  5  1  1  0  0  0
  6  5  1  0  0  0
  7  5  1  0  0  0
  8  2  1  0  0  0
 10  9  1  0  0  0
 10 13  4  0  0  0
 11  4  1  0  0  0
 12 20  4  0  0  0
 13 16  4  0  0  0
 14  3  2  0  0  0
 15  9  1  0  0  0
 16 11  1  0  0  0
 17  6  1  0  0  0
 18  9  2  0  0  0
 19  8  2  0  0  0
 20 16  4  0  0  0
 21  8  1  0  0  0
  7 22  1  0  0  0
 17 23  1  0  0  0
 24 15  1  0  0  0
 25 15  1  0  0  0
 26 17  1  0  0  0
  5 27  1  0  0  0
  6 28  1  0  0  0
  4  7  1  0  0  0
  6  3  1  0  0  0
 12 10  4  0  0  0
M  END
$$$$
Unknown 29

Structure written by MVD (www.molegro.com)
 21 22  0  0  1  0            999 V2000
    0.0573   -3.9589    0.0000 N   0  0  0  0  0  0
    0.0688   -2.3089    0.0000 C   0  0  0  0  0  0
    0.0688   -1.4839    0.0000 C   0  0  0  0  0  0
   -0.6474   -3.5406    0.0000 C   0  0  0  0  0  0
    0.7792   -3.5464    0.0000 C   0  0  0  0  0  0
   -0.6474   -2.7214    0.0000 C   0  0  0  0  0  0
    0.7792   -2.7214    0.0000 C   0  0  0  0  0  0
   -0.6474   -1.0714    0.0000 C   0  0  0  0  0  0
    0.7792   -1.0714    0.0000 C   0  0  0  0  0  0
   -0.6474   -0.2464    0.0000 C   0  0  0  0  0  0
    0.7792   -0.2464    0.0000 C   0  0  0  0  0  0
    0.0688    0.1661    0.0000 C   0  0  0  0  0  0
   -1.5946   -4.0799    0.0000 H   0  0  0  0  0  0
    1.7219   -4.0935    0.0000 H   0  0  0  0  0  0
   -1.5911   -2.1759    0.0000 H   0  0  0  0  0  0
    1.7238   -2.1776    0.0000 H   0  0  0  0  0  0
   -1.5911   -1.6169    0.0000 H   0  0  0  0  0  0
    1.7238   -1.6152    0.0000 H   0  0  0  0  0  0
   -1.5911    0.2991    0.0000 H   0  0  0  0  0  0
    1.7238    0.2974    0.0000 H   0  0  0  0  0  0
    0.0707    1.2561    0.0000 H   0  0  0  0  0  0
  2  7  2  0  0  0
  3  2  1  0  0  0
  4  1  2  0  0  0
  5  1  1  0  0  0
  6  4  1  0  0  0
  7  5  1  0  0  0
  8  3  1  0  0  0
  9  3  2  0  0  0
 10  8  2  0  0  0
 11  9  1  0  0  0
 12 11  2  0  0  0
  2  6  1  0  0  0
 10 12  1  0  0  0
  4 13  1  0  0  0
  5 14  1  0  0  0
  6 15  1  0  0  0
  7 16  1  0  0  0
  8 17  1  0  0  0
  9 18  1  0  0  0
 10 19  1  0  0  0
 11 20  1  0  0  0
 12 21  1  0  0  0
M  END
$$$$
Unknown 30

Structure written by MVD (www.molegro.com)
 23 24  0  0  1  0            999 V2000
    3.0032  -13.5497    0.0000 C   0  0  0  0  0  0
    3.0021  -14.3692    0.0000 C   0  0  0  0  0  0
    3.7101  -14.7782    0.0000 C   0  0  0  0  0  0
    4.4198  -14.3687    0.0000 C   0  0  0  0  0  0
    4.4169  -13.5461    0.0000 C   0  0  0  0  0  0
    3.7083  -13.1408    0.0000 C   0  0  0  0  0  0
    5.1292  -14.7762    0.0000 C   0  0  0  0  0  0
    5.1305  -15.5934    0.0000 O   0  0  0  0  0  0
    5.8363  -14.3665    0.0000 O   0  0  0  0  0  0
    2.2959  -14.7775    0.0000 C   0  0  0  0  0  0
    1.5883  -14.3666    0.0000 C   0  0  0  0  0  0
    0.8807  -14.7740    0.0000 C   0  0  0  0  0  0
    0.8796  -15.5921    0.0000 C   0  0  0  0  0  0
    1.5920  -16.0011    0.0000 N   0  0  0  0  0  0
    2.2966  -15.5913    0.0000 C   0  0  0  0  0  0
    2.0591  -13.0050    0.0000 H   0  0  0  0  0  0
    3.7098  -15.8682    0.0000 H   0  0  0  0  0  0
    5.3588  -12.9975    0.0000 H   0  0  0  0  0  0
    3.7050  -12.0508    0.0000 H   0  0  0  0  0  0
    1.5903  -13.2766    0.0000 H   0  0  0  0  0  0
   -0.0626  -14.2278    0.0000 H   0  0  0  0  0  0
   -0.0641  -16.1376    0.0000 H   0  0  0  0  0  0
    3.2417  -16.1344    0.0000 H   0  0  0  0  0  0
  1  2  1  0  0  0
  2  3  1  0  0  0
  3  4  1  0  0  0
  4  5  1  0  0  0
  5  6  1  0  0  0
  6  1  2  0  0  0
  7  8  4  0  0  0
  7  9  4  0  0  0
  4  7  2  0  0  0
 10 11  1  0  0  0
 11 12  2  0  0  0
 12 13  1  0  0  0
 13 14  1  0  0  0
 14 15  2  0  0  0
 15 10  2  0  0  0
  2 10  2  0  0  0
  1 16  1  0  0  0
  3 17  1  0  0  0
  5 18  1  0  0  0
  6 19  1  0  0  0
 11 20  1  0  0  0
 12 21  1  0  0  0
 13 22  1  0  0  0
 15 23  1  0  0  0
M  END
$$$$
Unknown 31

Structure written by MVD (www.molegro.com)
 13 13  0  0  1  0            999 V2000
    7.5135   -3.5285    0.0000 C   0  0  0  0  0  0
    7.5184   -4.3538    0.0000 C   0  0  0  0  0  0
    8.2316   -4.7600    0.0000 N   0  0  0  0  0  0
    8.9445   -4.3454    0.0000 C   0  0  0  0  0  0
    8.9396   -3.5201    0.0000 C   0  0  0  0  0  0
    8.2219   -3.1094    0.0000 C   0  0  0  0  0  0
    9.6593   -4.7538    0.0000 C   0  0  0  0  0  0
    9.6630   -5.5772    0.0000 O   0  0  0  0  0  0
   10.3705   -4.3390    0.0000 O   0  0  0  0  0  0
    6.5650   -2.9913    0.0000 H   0  0  0  0  0  0
    6.5777   -4.9044    0.0000 H   0  0  0  0  0  0
    9.8809   -2.9705    0.0000 H   0  0  0  0  0  0
    8.2140   -2.0194    0.0000 H   0  0  0  0  0  0
  2  3  4  0  0  0
  3  4  4  0  0  0
  4  5  4  0  0  0
  5  6  4  0  0  0
  4  7  1  0  0  0
  1  2  4  0  0  0
  7  8  4  0  0  0
  1  6  4  0  0  0
  7  9  4  0  0  0
  1 10  1  0  0  0
  2 11  1  0  0  0
  5 12  1  0  0  0
  6 13  1  0  0  0
M  END
$$$$
Unknown 32

Structure written by MVD (www.molegro.com)
 20 21  0  0  1  0            999 V2000
   13.2814  -12.3302    0.0000 O   0  0  0  0  0  0
   13.9918  -12.7398    0.0000 C   0  0  0  0  0  0
   14.7032  -12.3350    0.0000 O   0  0  0  0  0  0
   13.9869  -13.5593    0.0000 C   0  0  0  0  0  0
   14.7003  -13.9740    0.0000 C   0  0  0  0  0  0
   14.6994  -14.7927    0.0000 C   0  0  0  0  0  0
   13.9874  -15.2044    0.0000 C   0  0  0  0  0  0
   13.2740  -14.7938    0.0000 C   0  0  0  0  0  0
   13.2686  -13.9683    0.0000 C   0  0  0  0  0  0
   12.5652  -15.2006    0.0000 C   0  0  0  0  0  0
   11.8170  -14.8708    0.0000 S   0  0  0  0  0  0
   11.2698  -15.4840    0.0000 C   0  0  0  0  0  0
   11.6793  -16.1886    0.0000 C   0  0  0  0  0  0
   12.4816  -16.0160    0.0000 N   0  0  0  0  0  0
   15.6454  -13.4309    0.0000 H   0  0  0  0  0  0
   15.6432  -15.3379    0.0000 H   0  0  0  0  0  0
   13.9885  -16.2944    0.0000 H   0  0  0  0  0  0
   12.3245  -13.4236    0.0000 H   0  0  0  0  0  0
   10.1854  -15.3740    0.0000 H   0  0  0  0  0  0
   11.2386  -17.1855    0.0000 H   0  0  0  0  0  0
  1  2  4  0  0  0
  2  3  4  0  0  0
  2  4  2  0  0  0
  4  5  1  0  0  0
  6  5  2  0  0  0
  7  6  1  0  0  0
  8  7  1  0  0  0
  9  8  1  0  0  0
  4  9  1  0  0  0
  8 10  2  0  0  0
 10 11  1  0  0  0
 12 11  1  0  0  0
 13 12  1  0  0  0
 14 13  2  0  0  0
 10 14  2  0  0  0
  5 15  1  0  0  0
  6 16  1  0  0  0
  7 17  1  0  0  0
  9 18  1  0  0  0
 12 19  1  0  0  0
 13 20  1  0  0  0
M  END
$$$$
Unknown 33

Structure written by MVD (www.molegro.com)
 22 23  0  0  1  0            999 V2000
   23.6554  -19.9994    0.0000 C   0  0  0  0  0  0
   22.9428  -20.4080    0.0000 C   0  0  0  0  0  0
   22.2303  -19.9994    0.0000 C   0  0  0  0  0  0
   22.2303  -19.1699    0.0000 C   0  0  0  0  0  0
   22.9428  -18.7533    0.0000 C   0  0  0  0  0  0
   23.6554  -19.1699    0.0000 C   0  0  0  0  0  0
   21.5172  -18.7605    0.0000 C   0  0  0  0  0  0
   20.8028  -19.1788    0.0000 N   0  0  0  0  0  0
   20.8028  -20.0038    0.0000 C   0  0  0  0  0  0
   21.5232  -20.4110    0.0000 C   0  0  0  0  0  0
   20.0903  -20.4196    0.0000 C   0  0  0  0  0  0
   24.3698  -18.7574    0.0000 C   0  0  0  0  0  0
   25.0843  -19.1699    0.0000 O   0  0  0  0  0  0
   24.3698  -17.9324    0.0000 O   0  0  0  0  0  0
   24.5986  -20.5458    0.0000 H   0  0  0  0  0  0
   22.9428  -21.4980    0.0000 H   0  0  0  0  0  0
   22.9428  -17.6633    0.0000 H   0  0  0  0  0  0
   21.5125  -17.6705    0.0000 H   0  0  0  0  0  0
   21.5301  -21.5010    0.0000 H   0  0  0  0  0  0
   20.3404  -21.4805    0.0000 H   0  0  0  0  0  0
   19.5524  -20.1301    0.9027 H   0  0  0  0  0  0
   19.5524  -20.1301   -0.9027 H   0  0  0  0  0  0
  1  2  2  0  0  0
  2  3  2  0  0  0
  4  3  1  0  0  0
  5  4  1  0  0  0
  6  5  1  0  0  0
  1  6  1  0  0  0
  4  7  2  0  0  0
  7  8  2  0  0  0
  8  9  2  0  0  0
  9 10  1  0  0  0
  3 10  2  0  0  0
  9 11  1  0  0  0
  6 12  2  0  0  0
 12 13  4  0  0  0
 12 14  4  0  0  0
  1 15  1  0  0  0
  2 16  1  0  0  0
  5 17  1  0  0  0
  7 18  1  0  0  0
 10 19  1  0  0  0
 11 20  1  0  0  0
 11 21  1  0  0  0
 11 22  1  0  0  0
M  END
$$$$
